
!*****Lines

!**************************L5000- Feeder 3 Ph******************************************************************************************************8

New line.L5000_1  Phases=3 Bus1=N1.1.2.3.4 Bus2=N2.1.2.3.4 Length=109.34 units=ft Spacing=3PH_H_3_YYYY wires=[336_ACSR 336_ACSR 336_ACSR 336_ACSR] faultrate=4.8606136e-05 repair=3.7

New line.L5000_2  Phases=3 Bus1=N2.1.2.3.4 Bus2=N3.1.2.3.4 Length=87.97 units=ft Spacing=3PH_H_3_YYYY wires=[336_ACSR 336_ACSR 336_ACSR 336_ACSR] faultrate=4.8606136e-05 repair=3.7
New line.L5000_3  Phases=3 Bus1=N3.1.2.3.4 Bus2=N031.1.2.3.4 Length=72.33 units=ft Spacing=3PH_H_3_YYYY wires=[336_ACSR 336_ACSR 336_ACSR 336_ACSR] faultrate=4.8606136e-05 repair=3.7
New line.L5000_4  Phases=3 Bus1=N3.1.2.3.4 Bus2=N4.1.2.3.4 Length=127.74 units=ft Spacing=3PH_H_3_YYYY wires=[336_ACSR 336_ACSR 336_ACSR 336_ACSR] faultrate=4.8606136e-05 repair=3.7


New line.L5000_4_1  Phases=3 Bus1=N4.1.2.3.4 Bus2=N041.1.2.3.4 Length=162.83 units=ft Spacing=3PH_H_3_YYYY wires=[336_ACSR 336_ACSR 336_ACSR 336_ACSR] faultrate=4.8606136e-05 repair=3.7
New line.L5000_4_2  Phases=3 Bus1=N041.1.2.3.4 Bus2=N042.1.2.3.4 Length=179.35 units=ft Spacing=3PH_H_3_YYYY wires=[4_ALUM 4_ALUM 4_ALUM 4_ALUM] faultrate=4.8606136e-05 repair=3.7

New line.L5000_6  Phases=3 Bus1=N4.1.2.3.4 Bus2=N6.1.2.3.4 Length=141.88 units=ft Spacing=3PH_H_3_YYYY wires=[336_ACSR 336_ACSR 336_ACSR 336_ACSR] faultrate=4.8606136e-05 repair=3.7
New line.L5000_8  Phases=3 Bus1=N6.1.2.3.4 Bus2=N8.1.2.3.4 Length=137.82 units=ft Spacing=3PH_H_3_YYYY wires=[336_ACSR 336_ACSR 336_ACSR 336_ACSR] faultrate=4.8606136e-05 repair=3.7

New line.L5000_9  Phases=3 Bus1=N8.1.2.3.4 Bus2=N9.1.2.3.4 Length=43.00 units=ft Spacing=3PH_H_3_YYYY wires=[336_ACSR 336_ACSR 336_ACSR 336_ACSR] faultrate=4.8606136e-05 repair=3.7

New line.L5000_9_2  Phases=3 Bus1=N9.1.2.3.4 Bus2=N092.1.2.3.4 Length=196.56 units=ft Spacing=3PH_H_3_YYYY wires=[336_ACSR 336_ACSR 336_ACSR 336_ACSR] faultrate=4.8606136e-05 repair=3.7
New line.L5000_9_3  Phases=3 Bus1=N092.1.2.3.4 Bus2=N093.1.2.3.4 Length=182.77 units=ft Spacing=3PH_H_3_YYYY wires=[336_ACSR 336_ACSR 336_ACSR 336_ACSR] faultrate=4.8606136e-05 repair=3.7


New line.L5000_10  Phases=3 Bus1=N9.1.2.3.4 Bus2=N10.1.2.3.4 Length=114.13 units=ft Spacing=3PH_H_3_YYYY wires=[336_ACSR 336_ACSR 336_ACSR 336_ACSR] faultrate=4.8606136e-05 repair=3.7
New line.L5000_11  Phases=3 Bus1=N10.1.2.3.4 Bus2=N11.1.2.3.4 Length=95.11 units=ft Spacing=3PH_H_3_YYYY wires=[336_ACSR 336_ACSR 336_ACSR 336_ACSR] faultrate=4.8606136e-05 repair=3.7
New line.L5000_12  Phases=3 Bus1=N11.1.2.3.4 Bus2=N12.1.2.3.4 Length=116.05 units=ft Spacing=3PH_H_3_YYYY wires=[336_ACSR 336_ACSR 336_ACSR 336_ACSR] faultrate=4.8606136e-05 repair=3.7
New line.L5000_13  Phases=3 Bus1=N12.1.2.3.4 Bus2=N13.1.2.3.4 Length=85.02 units=ft Spacing=3PH_H_3_YYYY wires=[336_ACSR 336_ACSR 336_ACSR 336_ACSR] faultrate=4.8606136e-05 repair=3.7
New line.L5000_14  Phases=3 Bus1=N13.1.2.3.4 Bus2=N14.1.2.3.4 Length=93.56 units=ft Spacing=3PH_H_3_YYYY wires=[336_ACSR 336_ACSR 336_ACSR 336_ACSR] faultrate=4.8606136e-05 repair=3.7
New line.L5000_15  Phases=3 Bus1=N14.1.2.3.4 Bus2=N15.1.2.3.4 Length=138.42 units=ft Spacing=3PH_H_3_YYYY wires=[336_ACSR 336_ACSR 336_ACSR 336_ACSR] faultrate=4.8606136e-05 repair=3.7
New line.L5000_16  Phases=3 Bus1=N15.1.2.3.4 Bus2=N16.1.2.3.4 Length=94.80 units=ft Spacing=3PH_H_3_YYYY wires=[336_ACSR 336_ACSR 336_ACSR 336_ACSR] faultrate=4.8606136e-05 repair=3.7
New line.L5000_17  Phases=3 Bus1=N16.1.2.3.4 Bus2=N17.1.2.3.4 Length=95.55 units=ft Spacing=3PH_H_3_YYYY wires=[336_ACSR 336_ACSR 336_ACSR 336_ACSR] faultrate=4.8606136e-05 repair=3.7
New line.L5000_18  Phases=3 Bus1=N17.1.2.3.4 Bus2=N18.1.2.3.4 Length=117.69 units=ft Spacing=3PH_H_3_YYYY wires=[336_ACSR 336_ACSR 336_ACSR 336_ACSR] faultrate=4.8606136e-05 repair=3.7
New line.L5000_19  Phases=3 Bus1=N18.1.2.3.4 Bus2=N19.1.2.3.4 Length=94.88 units=ft Spacing=3PH_H_3_YYYY wires=[336_ACSR 336_ACSR 336_ACSR 336_ACSR] faultrate=4.8606136e-05 repair=3.7
New line.L5000_20  Phases=3 Bus1=N19.1.2.3.4 Bus2=N20.1.2.3.4 Length=100.59 units=ft Spacing=3PH_H_3_YYYY wires=[336_ACSR 336_ACSR 336_ACSR 336_ACSR] faultrate=4.8606136e-05 repair=3.7
New line.L5000_21  Phases=3 Bus1=N20.1.2.3.4 Bus2=N21.1.2.3.4 Length=105.79 units=ft Spacing=3PH_H_3_YYYY wires=[336_ACSR 336_ACSR 336_ACSR 336_ACSR] faultrate=4.8606136e-05 repair=3.7


New line.L5000_21_1  Phases=3 Bus1=N21.1.2.3.4 Bus2=N0211.1.2.3.4 Length=86.11 units=ft Spacing=3PH_H_3_YYYY wires=[336_ACSR 336_ACSR 336_ACSR 336_ACSR] faultrate=4.8606136e-05 repair=3.7
New line.L5000_21_1_5  Phases=3 Bus1=N0211.1.2.3.4 Bus2=N02115.1.2.3.4 Length=79.60 units=ft Spacing=3PH_H_3_YYYY wires=[336_ACSR 336_ACSR 336_ACSR 336_ACSR] faultrate=4.8606136e-05 repair=3.7
New line.L5000_21_2  Phases=3 Bus1=N02115.1.2.3.4 Bus2=N0212.1.2.3.4 Length=55.96 units=ft Spacing=3PH_H_3_YYYY wires=[336_ACSR 336_ACSR 336_ACSR 336_ACSR] faultrate=4.8606136e-05 repair=3.7

New line.L5000_22  Phases=3 Bus1=N21.1.2.3.4 Bus2=N22.1.2.3.4 Length=91.32 units=ft Spacing=3PH_H_3_YYYY wires=[336_ACSR 336_ACSR 336_ACSR 336_ACSR] faultrate=4.8606136e-05 repair=3.7
New line.L5000_23  Phases=3 Bus1=N22.1.2.3.4 Bus2=N23.1.2.3.4 Length=116.65 units=ft Spacing=3PH_H_3_YYYY wires=[336_ACSR 336_ACSR 336_ACSR 336_ACSR] faultrate=4.8606136e-05 repair=3.7
New line.L5000_24  Phases=3 Bus1=N23.1.2.3.4 Bus2=N24.1.2.3.4 Length=48.90 units=ft Spacing=3PH_H_3_YYYY wires=[336_ACSR 336_ACSR 336_ACSR 336_ACSR] faultrate=4.8606136e-05 repair=3.7
New line.L5000_25  Phases=3 Bus1=N24.1.2.3.4 Bus2=N25.1.2.3.4 Length=57.54 units=ft Spacing=3PH_H_3_YYYY wires=[336_ACSR 336_ACSR 336_ACSR 336_ACSR] faultrate=4.8606136e-05 repair=3.7
New line.L5000_26  Phases=3 Bus1=N25.1.2.3.4 Bus2=N26.1.2.3.4 Length=101.88 units=ft Spacing=3PH_H_3_YYYY wires=[336_ACSR 336_ACSR 336_ACSR 336_ACSR] faultrate=4.8606136e-05 repair=3.7
New line.L5000_27  Phases=3 Bus1=N26.1.2.3.4 Bus2=N27.1.2.3.4 Length=115.10 units=ft Spacing=3PH_H_3_YYYY wires=[336_ACSR 336_ACSR 336_ACSR 336_ACSR] faultrate=4.8606136e-05 repair=3.7
New line.L5000_28  Phases=3 Bus1=N27.1.2.3.4 Bus2=N28.1.2.3.4 Length=98.50 units=ft Spacing=3PH_H_3_YYYY wires=[336_ACSR 336_ACSR 336_ACSR 336_ACSR] faultrate=4.8606136e-05 repair=3.7
New line.L5000_29  Phases=3 Bus1=N28.1.2.3.4 Bus2=N29.1.2.3.4 Length=111.67 units=ft Spacing=3PH_H_3_YYYY wires=[336_ACSR 336_ACSR 336_ACSR 336_ACSR] faultrate=4.8606136e-05 repair=3.7
New line.L5000_30  Phases=3 Bus1=N29.1.2.3.4 Bus2=N30.1.2.3.4 Length=67.02 units=ft Spacing=3PH_H_3_YYYY wires=[336_ACSR 336_ACSR 336_ACSR 336_ACSR] faultrate=4.8606136e-05 repair=3.7


New line.L5000_30_1  Phases=3 Bus1=N30.1.2.3.4 Bus2=N0301.1.2.3.4 Length=19.06 units=ft Spacing=3PH_H_3_YYYY wires=[336_ACSR 336_ACSR 336_ACSR 336_ACSR] faultrate=4.8606136e-05 repair=3.7
New line.L5000_30_2  Phases=3 Bus1=N0301.1.2.3.4 Bus2=N0302.1.2.3.4 Length=150.24 units=ft Spacing=3PH_H_3_YYYY wires=[336_ACSR 336_ACSR 336_ACSR 336_ACSR] faultrate=4.8606136e-05 repair=3.7
New line.L5000_31  Phases=3 Bus1=N30.1.2.3.4 Bus2=N31.1.2.3.4 Length=19.13 units=ft Spacing=3PH_H_3_YYYY wires=[336_ACSR 336_ACSR 336_ACSR 336_ACSR] faultrate=4.8606136e-05 repair=3.7
New line.L5000_32  Phases=3 Bus1=N31.1.2.3.4 Bus2=N32.1.2.3.4 Length=159.66 units=ft Spacing=3PH_H_3_YYYY wires=[336_ACSR 336_ACSR 336_ACSR 336_ACSR] faultrate=4.8606136e-05 repair=3.7
New line.L5000_33  Phases=3 Bus1=N32.1.2.3.4 Bus2=N33.1.2.3.4 Length=166.14 units=ft Spacing=3PH_H_3_YYYY wires=[336_ACSR 336_ACSR 336_ACSR 336_ACSR] faultrate=4.8606136e-05 repair=3.7
New line.L5000_34  Phases=3 Bus1=N33.1.2.3.4 Bus2=N34.1.2.3.4 Length=149.87 units=ft Spacing=3PH_H_3_YYYY wires=[336_ACSR 336_ACSR 336_ACSR 336_ACSR] faultrate=4.8606136e-05 repair=3.7
New line.L5000_35  Phases=3 Bus1=N34.1.2.3.4 Bus2=N35.1.2.3.4 Length=115.41 units=ft Spacing=3PH_H_3_YYYY wires=[336_ACSR 336_ACSR 336_ACSR 336_ACSR] faultrate=4.8606136e-05 repair=3.7
New line.L5000_37  Phases=3 Bus1=N35.1.2.3.4 Bus2=N37.1.2.3.4 Length= 88.97 units=ft Spacing=3PH_H_3_YYYY wires=[336_ACSR 336_ACSR 336_ACSR 336_ACSR] faultrate=4.8606136e-05 repair=3.7
New line.L5000_38  Phases=3 Bus1=N37.1.2.3.4 Bus2=N38.1.2.3.4 Length=64.33 units=ft Spacing=3PH_H_3_YYYY wires=[336_ACSR 336_ACSR 336_ACSR 336_ACSR] faultrate=4.8606136e-05 repair=3.7
New line.L5000_39  Phases=3 Bus1=N38.1.2.3.4 Bus2=N39.1.2.3.4 Length=85.37 units=ft Spacing=3PH_H_3_YYYY wires=[336_ACSR 336_ACSR 336_ACSR 336_ACSR] faultrate=4.8606136e-05 repair=3.7
New line.L5000_40  Phases=3 Bus1=N39.1.2.3.4 Bus2=N40.1.2.3.4 Length=93.54 units=ft Spacing=3PH_H_3_YYYY wires=[336_ACSR 336_ACSR 336_ACSR 336_ACSR] faultrate=4.8606136e-05 repair=3.7



New line.L5000_41  Phases=3 Bus1=N40.1.2.3.4 Bus2=N41.1.2.3.4 Length=102.07 units=ft Spacing=3PH_H_3_YYYY wires=[336_ACSR 336_ACSR 336_ACSR 336_ACSR] faultrate=4.8606136e-05 repair=3.7
New line.L5000_42  Phases=3 Bus1=N41.1.2.3.4 Bus2=N42.1.2.3.4 Length=96.30 units=ft Spacing=3PH_H_3_YYYY wires=[336_ACSR 336_ACSR 336_ACSR 336_ACSR] faultrate=4.8606136e-05 repair=3.7
New line.L5000_43  Phases=3 Bus1=N42.1.2.3.4 Bus2=N43.1.2.3.4 Length=112.30 units=ft Spacing=3PH_H_3_YYYY wires=[336_ACSR 336_ACSR 336_ACSR 336_ACSR] faultrate=4.8606136e-05 repair=3.7
New line.L5000_44  Phases=3 Bus1=N43.1.2.3.4 Bus2=N44.1.2.3.4 Length=65.55 units=ft Spacing=3PH_H_3_YYYY wires=[336_ACSR 336_ACSR 336_ACSR 336_ACSR] faultrate=4.8606136e-05 repair=3.7
New line.L5000_45  Phases=3 Bus1=N44.1.2.3.4 Bus2=N45.1.2.3.4 Length=74.37 units=ft Spacing=3PH_H_3_YYYY wires=[336_ACSR 336_ACSR 336_ACSR 336_ACSR] faultrate=4.8606136e-05 repair=3.7
New line.L5000_46  Phases=3 Bus1=N45.1.2.3.4 Bus2=N46.1.2.3.4 Length=73.63 units=ft Spacing=3PH_H_3_YYYY wires=[336_ACSR 336_ACSR 336_ACSR 336_ACSR] faultrate=4.8606136e-05 repair=3.7
New line.L5000_48  Phases=3 Bus1=N46.1.2.3.4 Bus2=N48.1.2.3.4 Length=176.49 units=ft Spacing=3PH_H_3_YYYY wires=[336_ACSR 336_ACSR 336_ACSR 336_ACSR] faultrate=4.8606136e-05 repair=3.7
New line.L5000_48_5  Phases=3 Bus1=N48.1.2.3.4 Bus2=N0485.1.2.3.4 Length=74.36 units=ft Spacing=3PH_H_3_YYYY wires=[336_ACSR 336_ACSR 336_ACSR 336_ACSR] faultrate=4.8606136e-05 repair=3.7
New line.L5000_49  Phases=3 Bus1=N0485.1.2.3.4 Bus2=N49.1.2.3.4 Length=34.99 units=ft Spacing=3PH_H_3_YYYY wires=[336_ACSR 336_ACSR 336_ACSR 336_ACSR] faultrate=4.8606136e-05 repair=3.7
New line.L5000_50  Phases=3 Bus1=N49.1.2.3.4 Bus2=N50.1.2.3.4 Length=98.08 units=ft Spacing=3PH_H_3_YYYY wires=[336_ACSR 336_ACSR 336_ACSR 336_ACSR] faultrate=4.8606136e-05 repair=3.7
New line.L5000_51  Phases=3 Bus1=N50.1.2.3.4 Bus2=N51.1.2.3.4 Length=128.55 units=ft Spacing=3PH_H_3_YYYY wires=[336_ACSR 336_ACSR 336_ACSR 336_ACSR] faultrate=4.8606136e-05 repair=3.7
New line.L5000_51_1  Phases=3 Bus1=N51.1.2.3.4 Bus2=N0511.1.2.3.4 Length=63.11 units=ft Spacing=3PH_H_3_YYYY wires=[336_ACSR 336_ACSR 336_ACSR 336_ACSR] faultrate=4.8606136e-05 repair=3.7
New line.L5000_52  Phases=3 Bus1=N51.1.2.3.4 Bus2=N52.1.2.3.4 Length=80.45 units=ft Spacing=3PH_H_3_YYYY wires=[336_ACSR 336_ACSR 336_ACSR 336_ACSR] faultrate=4.8606136e-05 repair=3.7
New line.L5000_53  Phases=3 Bus1=N52.1.2.3.4 Bus2=N53.1.2.3.4 Length=118.86 units=ft Spacing=3PH_H_3_YYYY wires=[336_ACSR 336_ACSR 336_ACSR 336_ACSR] faultrate=4.8606136e-05 repair=3.7
New line.L5000_54  Phases=3 Bus1=N53.1.2.3.4 Bus2=N54.1.2.3.4 Length=74.73 units=ft Spacing=3PH_H_3_YYYY wires=[336_ACSR 336_ACSR 336_ACSR 336_ACSR] faultrate=4.8606136e-05 repair=3.7

New line.L5000_55  Phases=3 Bus1=N54.1.2.3.4 Bus2=N55.1.2.3.4 Length=80.07 units=ft Spacing=3PH_H_3_YYYY wires=[336_ACSR 336_ACSR 336_ACSR 336_ACSR] faultrate=4.8606136e-05 repair=3.7
New line.L5000_56  Phases=3 Bus1=N55.1.2.3.4 Bus2=N56.1.2.3.4 Length=101.30 units=ft Spacing=3PH_H_3_YYYY wires=[336_ACSR 336_ACSR 336_ACSR 336_ACSR] faultrate=4.8606136e-05 repair=3.7


New line.L5000_57  Phases=3 Bus1=N56.1.2.3.4 Bus2=N57.1.2.3.4 Length=114.68 units=ft Spacing=3PH_H_3_YYYY wires=[336_ACSR 336_ACSR 336_ACSR 336_ACSR] faultrate=4.8606136e-05 repair=3.7

New line.L5000_58  Phases=3 Bus1=N57.1.2.3.4 Bus2=N58.1.2.3.4 Length= 85.23 units=ft Spacing=3PH_H_3_YYYY wires=[336_ACSR 336_ACSR 336_ACSR 336_ACSR] faultrate=4.8606136e-05 repair=3.7
New line.L5000_59  Phases=3 Bus1=N58.1.2.3.4 Bus2=N59.1.2.3.4 Length=103.15 units=ft Spacing=3PH_H_3_YYYY wires=[336_ACSR 336_ACSR 336_ACSR 336_ACSR] faultrate=4.8606136e-05 repair=3.7
New line.L5000_60  Phases=3 Bus1=N59.1.2.3.4 Bus2=N60.1.2.3.4 Length=124.39 units=ft Spacing=3PH_H_3_YYYY wires=[336_ACSR 336_ACSR 336_ACSR 336_ACSR] faultrate=4.8606136e-05 repair=3.7
New line.L5000_61  Phases=3 Bus1=N60.1.2.3.4 Bus2=N61.1.2.3.4 Length=119.00 units=ft Spacing=3PH_H_3_YYYY wires=[336_ACSR 336_ACSR 336_ACSR 336_ACSR] faultrate=4.8606136e-05 repair=3.7
New line.L5000_62  Phases=3 Bus1=N61.1.2.3.4 Bus2=N62.1.2.3.4 Length=131.52 units=ft Spacing=3PH_H_3_YYYY wires=[336_ACSR 336_ACSR 336_ACSR 336_ACSR] faultrate=4.8606136e-05 repair=3.7
New line.L5000_64  Phases=3 Bus1=N62.1.2.3.4 Bus2=N64.1.2.3.4 Length=170.74 units=ft Spacing=3PH_H_3_YYYY wires=[336_ACSR 336_ACSR 336_ACSR 336_ACSR] faultrate=4.8606136e-05 repair=3.7
New line.L5000_65  Phases=3 Bus1=N64.1.2.3.4 Bus2=N65.1.2.3.4 Length=115.83 units=ft Spacing=3PH_H_3_YYYY wires=[336_ACSR 336_ACSR 336_ACSR 336_ACSR] faultrate=4.8606136e-05 repair=3.7
New line.L5000_66  Phases=3 Bus1=N65.1.2.3.4 Bus2=N66.1.2.3.4 Length= 46.49 units=ft Spacing=3PH_H_3_YYYY wires=[336_ACSR 336_ACSR 336_ACSR 336_ACSR] faultrate=4.8606136e-05 repair=3.7
New line.L5000_67  Phases=3 Bus1=N66.1.2.3.4 Bus2=N67.1.2.3.4 Length=210.95 units=ft Spacing=3PH_H_3_YYYY wires=[336_ACSR 336_ACSR 336_ACSR 336_ACSR] faultrate=4.8606136e-05 repair=3.7

New line.L5000_67_5  Phases=3 Bus1=N67.1.2.3.4 Bus2=N0675.1.2.3.4 Length=61.87 units=ft Spacing=3PH_H_3_YYYY wires=[336_ACSR 336_ACSR 336_ACSR 336_ACSR] faultrate=4.8606136e-05 repair=3.7
New line.L5000_67_5_1  Phases=3 Bus1=N67.1.2.3.4 Bus2=N06751.1.2.3.4 Length=91.72 units=ft Spacing=3PH_H_3_YYYY wires=[336_ACSR 336_ACSR 336_ACSR 336_ACSR] faultrate=4.8606136e-05 repair=3.7

New line.L5000_68  Phases=3 Bus1=N0675.1.2.3.4 Bus2=N68.1.2.3.4 Length=54.46 units=ft Spacing=3PH_H_3_YYYY wires=[336_ACSR 336_ACSR 336_ACSR 336_ACSR] faultrate=4.8606136e-05 repair=3.7

New line.L5000_68_1 Phases=3 Bus1=N68.1.2.3.4 Bus2=N0681.1.2.3.4 Length=86.70 units=ft Spacing=3PH_H_3_YYYY wires=[1/0_ACSR 1/0_ACSR 1/0_ACSR 1/0_ACSR] faultrate=4.8606136e-05 repair=3.7
New line.L5000_68_1_1  Phases=3 Bus1=N0681.1.2.3.4 Bus2=N06811.1.2.3.4 Length=144.04 units=ft Spacing=3PH_H_3_YYYY wires=[336_ACSR 336_ACSR 336_ACSR 336_ACSR] faultrate=4.8606136e-05 repair=3.7
New line.L5000_68_2  Phases=3 Bus1=N68.1.2.3.4 Bus2=N0682.1.2.3.4 Length=162.58 units=ft Spacing=3PH_H_3_YYYY wires=[336_ACSR 336_ACSR 336_ACSR 336_ACSR] faultrate=4.8606136e-05 repair=3.7
New line.L5000_68_3  Phases=3 Bus1=N68.1.2.3.4 Bus2=N0683.1.2.3.4 Length=168.68 units=ft Spacing=3PH_H_3_YYYY wires=[336_ACSR 336_ACSR 336_ACSR 336_ACSR] faultrate=4.8606136e-05 repair=3.7

New line.L5000_68_3_1  Phases=3 Bus1=N0683.1.2.3.4 Bus2=N06831.1.2.3.4 Length=162.82 units=ft Spacing=3PH_H_3_YYYY wires=[336_ACSR 336_ACSR 336_ACSR 336_ACSR] faultrate=4.8606136e-05 repair=3.7
New line.L5000_68_3_2 Phases=3 Bus1=N06831.1.2.3.4 Bus2=N06832.1.2.3.4 Length=82.77 units=ft Spacing=3PH_H_3_YYYY wires=[336_ACSR 336_ACSR 336_ACSR 336_ACSR] faultrate=4.8606136e-05 repair=3.7
New line.L5000_68_3_3  Phases=3 Bus1=N06832.1.2.3.4 Bus2=N06833.1.2.3.4 Length=235.82 units=ft Spacing=3PH_H_3_YYYY wires=[336_ACSR 336_ACSR 336_ACSR 336_ACSR] faultrate=4.8606136e-05 repair=3.7
New line.L5000_69 Phases=3 Bus1=N68.1.2.3.4 Bus2=N69.1.2.3.4 Length=189.14 units=ft Spacing=3PH_H_3_YYYY wires=[336_ACSR 336_ACSR 336_ACSR 336_ACSR] faultrate=4.8606136e-05 repair=3.7
New line.L5000_69_1 Phases=3 Bus1=N69.1.2.3.4 Bus2=N0691.1.2.3.4 Length=85.92 units=ft Spacing=3PH_H_3_YYYY wires=[336_ACSR 336_ACSR 336_ACSR 336_ACSR] faultrate=4.8606136e-05 repair=3.7


New line.L5000_70 Phases=3 Bus1=N69.1.2.3.4 Bus2=N70.1.2.3.4 Length=101.72 units=ft Spacing=3PH_H_3_YYYY wires=[336_ACSR 336_ACSR 336_ACSR 336_ACSR] faultrate=4.8606136e-05 repair=3.7
New line.L5000_71 Phases=3 Bus1=N70.1.2.3.4 Bus2=N71.1.2.3.4 Length=138.52 units=ft Spacing=3PH_H_3_YYYY wires=[336_ACSR 336_ACSR 336_ACSR 336_ACSR] faultrate=4.8606136e-05 repair=3.7
New line.L5000_72 Phases=3 Bus1=N71.1.2.3.4 Bus2=N72.1.2.3.4 Length=125.86 units=ft Spacing=3PH_H_3_YYYY wires=[336_ACSR 336_ACSR 336_ACSR 336_ACSR] faultrate=4.8606136e-05 repair=3.7
New line.L5000_73 Phases=3 Bus1=N72.1.2.3.4 Bus2=N73.1.2.3.4 Length=1113.05 units=ft Spacing=3PH_H_3_YYYY wires=[336_ACSR 336_ACSR 336_ACSR 336_ACSR] faultrate=4.8606136e-05 repair=3.7
New line.L5000_74 Phases=3 Bus1=N73.1.2.3.4 Bus2=N74.1.2.3.4 Length=91.91 units=ft Spacing=3PH_H_3_YYYY wires=[336_ACSR 336_ACSR 336_ACSR 336_ACSR] faultrate=4.8606136e-05 repair=3.7

New line.L5000_74_1 Phases=3 Bus1=N74.1.2.3.4 Bus2=N0741.1.2.3.4 Length=150.53 units=ft Spacing=3PH_H_3_YYYY wires=[336_ACSR 336_ACSR 336_ACSR 336_ACSR] faultrate=4.8606136e-05 repair=3.7

New line.L5000_75 Phases=3 Bus1=N74.1.2.3.4 Bus2=N75.1.2.3.4 Length=216.71 units=ft Spacing=3PH_H_3_YYYY wires=[336_ACSR 336_ACSR 336_ACSR 336_ACSR] faultrate=4.8606136e-05 repair=3.7
New line.L5000_76 Phases=3 Bus1=N75.1.2.3.4 Bus2=N76.1.2.3.4 Length=106.04 units=ft Spacing=3PH_H_3_YYYY wires=[336_ACSR 336_ACSR 336_ACSR 336_ACSR] faultrate=4.8606136e-05 repair=3.7

New line.L5000_76_1 Phases=3 Bus1=N76.1.2.3.4 Bus2=N0761.1.2.3.4 Length=181.14 units=ft Spacing=3PH_H_3_YYYY wires=[336_ACSR 336_ACSR 336_ACSR 336_ACSR] faultrate=4.8606136e-05 repair=3.7

New line.L5000_77 Phases=3 Bus1=N76.1.2.3.4 Bus2=N77.1.2.3.4 Length=133.27 units=ft Spacing=3PH_H_3_YYYY wires=[336_ACSR 336_ACSR 336_ACSR 336_ACSR] faultrate=4.8606136e-05 repair=3.7
New line.L5000_78 Phases=3 Bus1=N77.1.2.3.4 Bus2=N78.1.2.3.4 Length=118.82 units=ft Spacing=3PH_H_3_YYYY wires=[336_ACSR 336_ACSR 336_ACSR 336_ACSR] faultrate=4.8606136e-05 repair=3.7
New line.L5000_79 Phases=3 Bus1=N78.1.2.3.4 Bus2=N79.1.2.3.4 Length=135.78 units=ft Spacing=3PH_H_3_YYYY wires=[336_ACSR 336_ACSR 336_ACSR 336_ACSR] faultrate=4.8606136e-05 repair=3.7

New line.L5000_79_1 Phases=3 Bus1=N79.1.2.3.4 Bus2=N0791.1.2.3.4 Length=135.07 units=ft Spacing=3PH_H_3_YYYY wires=[336_ACSR 336_ACSR 336_ACSR 336_ACSR] faultrate=4.8606136e-05 repair=3.7
New line.L5000_79_2 Phases=3 Bus1=N0791.1.2.3.4 Bus2=N0792.1.2.3.4 Length=50.39 units=ft Spacing=3PH_H_3_YYYY wires=[336_ACSR 336_ACSR 336_ACSR 336_ACSR] faultrate=4.8606136e-05 repair=3.7

New line.L5000_80 Phases=3 Bus1=N79.1.2.3.4 Bus2=N80.1.2.3.4 Length=155.56 units=ft Spacing=3PH_H_3_YYYY wires=[336_ACSR 336_ACSR 336_ACSR 336_ACSR] faultrate=4.8606136e-05 repair=3.7
New line.L5000_81 Phases=3 Bus1=N80.1.2.3.4 Bus2=N81.1.2.3.4 Length=187.16 units=ft Spacing=3PH_H_3_YYYY wires=[336_ACSR 336_ACSR 336_ACSR 336_ACSR] faultrate=4.8606136e-05 repair=3.7
New line.L5000_83 Phases=3 Bus1=N81.1.2.3.4 Bus2=N83.1.2.3.4 Length=140.22 units=ft Spacing=3PH_H_3_YYYY wires=[336_ACSR 336_ACSR 336_ACSR 336_ACSR] faultrate=4.8606136e-05 repair=3.7
New line.L5000_84 Phases=3 Bus1=N83.1.2.3.4 Bus2=N84.1.2.3.4 Length=150.74 units=ft Spacing=3PH_H_3_YYYY wires=[336_ACSR 336_ACSR 336_ACSR 336_ACSR] faultrate=4.8606136e-05 repair=3.7
New line.L5000_85 Phases=3 Bus1=N84.1.2.3.4 Bus2=N85.1.2.3.4 Length=202.39 units=ft Spacing=3PH_H_3_YYYY wires=[336_ACSR 336_ACSR 336_ACSR 336_ACSR] faultrate=4.8606136e-05 repair=3.7


New line.L5000_86 Phases=3 Bus1=N85.1.2.3.4 Bus2=N86.1.2.3.4 Length=229.06 units=ft Spacing=3PH_H_3_YYYY wires=[336_ACSR 336_ACSR 336_ACSR 336_ACSR] faultrate=4.8606136e-05 repair=3.7
New line.L5000_88 Phases=3 Bus1=N86.1.2.3.4 Bus2=N88.1.2.3.4 Length=202.32 units=ft Spacing=3PH_H_3_YYYY wires=[336_ACSR 336_ACSR 336_ACSR 336_ACSR] faultrate=4.8606136e-05 repair=3.7
New line.L5000_89 Phases=3 Bus1=N88.1.2.3.4 Bus2=N89.1.2.3.4 Length=223.44 units=ft Spacing=3PH_H_3_YYYY wires=[336_ACSR 336_ACSR 336_ACSR 336_ACSR] faultrate=4.8606136e-05 repair=3.7
New line.L5000_90 Phases=3 Bus1=N89.1.2.3.4 Bus2=N90.1.2.3.4 Length=182.68 units=ft Spacing=3PH_H_3_YYYY wires=[336_ACSR 336_ACSR 336_ACSR 336_ACSR] faultrate=4.8606136e-05 repair=3.7
New line.L5000_91 Phases=3 Bus1=N90.1.2.3.4 Bus2=N91.1.2.3.4 Length=194.74 units=ft Spacing=3PH_H_3_YYYY wires=[336_ACSR 336_ACSR 336_ACSR 336_ACSR] faultrate=4.8606136e-05 repair=3.7
New line.L5000_91_1 Phases=3 Bus1=N91.1.2.3.4 Bus2=N0911.1.2.3.4 Length=275.76 units=ft Spacing=3PH_H_3_YYYY wires=[6A_CW 6A_CW 6A_CW 336_ACSR] faultrate=4.8606136e-05 repair=3.7
New line.L5000_91_3 Phases=3 Bus1=N91.1.2.3.4 Bus2=N0913.1.2.3.4 Length=104.56 units=ft Spacing=3PH_H_3_YYYY wires=[336_ACSR 336_ACSR 336_ACSR 336_ACSR] faultrate=4.8606136e-05 repair=3.7
New line.L5000_91_4 Phases=3 Bus1=N0913.1.2.3.4 Bus2=N0914.1.2.3.4 Length=218.67 units=ft Spacing=3PH_H_3_YYYY wires=[336_ACSR 336_ACSR 336_ACSR 336_ACSR] faultrate=4.8606136e-05 repair=3.7

New line.L5000_92 Phases=3 Bus1=N91.1.2.3.4 Bus2=N92.1.2.3.4 Length=335.44 units=ft Spacing=3PH_H_3_YYYY wires=[336_ACSR 336_ACSR 336_ACSR 336_ACSR] faultrate=4.8606136e-05 repair=3.7
New line.L5000_92_1 Phases=3 Bus1=N92.1.2.3.4 Bus2=N0921.1.2.3.4 Length=117.51 units=ft Spacing=3PH_H_3_YYYY wires=[336_ACSR 336_ACSR 336_ACSR 336_ACSR] faultrate=4.8606136e-05 repair=3.7

New line.L5000_93 Phases=3 Bus1=N92.1.2.3.4 Bus2=N93.1.2.3.4 Length=268.24 units=ft Spacing=3PH_H_3_YYYY wires=[336_ACSR 336_ACSR 336_ACSR 336_ACSR] faultrate=4.8606136e-05 repair=3.7
New line.L5000_94 Phases=3 Bus1=N93.1.2.3.4 Bus2=N94.1.2.3.4 Length=260.55 units=ft Spacing=3PH_H_3_YYYY wires=[336_ACSR 336_ACSR 336_ACSR 336_ACSR] faultrate=4.8606136e-05 repair=3.7
New line.L5000_94_1 Phases=3 Bus1=N94.1.2.3.4 Bus2=N0941.1.2.3.4 Length=258.63 units=ft Spacing=3PH_H_3_YYYY wires=[6A_CW 6A_CW 6A_CW 336_ACSR] faultrate=4.8606136e-05 repair=3.7

New line.L5000_95 Phases=3 Bus1=N94.1.2.3.4 Bus2=N95.1.2.3.4 Length=294.22 units=ft Spacing=3PH_H_3_YYYY wires=[336_ACSR 336_ACSR 336_ACSR 336_ACSR] faultrate=4.8606136e-05 repair=3.7
New line.L5000_96 Phases=3 Bus1=N95.1.2.3.4 Bus2=N96.1.2.3.4 Length=247.52 units=ft Spacing=3PH_H_3_YYYY wires=[336_ACSR 336_ACSR 336_ACSR 336_ACSR] faultrate=4.8606136e-05 repair=3.7
New line.L5000_97 Phases=3 Bus1=N96.1.2.3.4 Bus2=N97.1.2.3.4 Length=266.24 units=ft Spacing=3PH_H_3_YYYY wires=[336_ACSR 336_ACSR 336_ACSR 336_ACSR] faultrate=4.8606136e-05 repair=3.7
New line.L5000_98 Phases=3 Bus1=N97.1.2.3.4 Bus2=N98.1.2.3.4 Length=296.87 units=ft Spacing=3PH_H_3_YYYY wires=[336_ACSR 336_ACSR 336_ACSR 336_ACSR] faultrate=4.8606136e-05 repair=3.7
New line.L5000_99 Phases=3 Bus1=N98.1.2.3.4 Bus2=N99.1.2.3.4 Length=241.11 units=ft Spacing=3PH_H_3_YYYY wires=[336_ACSR 336_ACSR 336_ACSR 336_ACSR] faultrate=4.8606136e-05 repair=3.7
New line.L5000_99_5 Phases=3 Bus1=N99.1.2.3.4 Bus2=N0995.1.2.3.4 Length=196.55 units=ft Spacing=3PH_H_3_YYYY wires=[336_ACSR 336_ACSR 336_ACSR 336_ACSR] faultrate=4.8606136e-05 repair=3.7
New line.L5000_100 Phases=3 Bus1=N0995.1.2.3.4 Bus2=N100.1.2.3.4 Length=108.29 units=ft Spacing=3PH_H_3_YYYY wires=[336_ACSR 336_ACSR 336_ACSR 336_ACSR] faultrate=4.8606136e-05 repair=3.7
New line.L5000_100_1 Phases=3 Bus1=N100.1.2.3.4 Bus2=N01001.1.2.3.4 Length=253.77 units=ft Spacing=3PH_H_3_YYYY wires=[336_ACSR 336_ACSR 336_ACSR 336_ACSR] faultrate=4.8606136e-05 repair=3.7
New line.L5000_101 Phases=3 Bus1=N01001.1.2.3.4 Bus2=N101.1.2.3.4 Length= 109.01 units=ft Spacing=3PH_H_3_YYYY wires=[336_ACSR 336_ACSR 336_ACSR 336_ACSR] faultrate=4.8606136e-05 repair=3.7
New line.L5000_101_1 Phases=3 Bus1=N101.1.2.3.4 Bus2=N01011.1.2.3.4 Length=109.01 units=ft Spacing=3PH_H_3_YYYY wires=[4/0_ACSR 4/0_ACSR 4/0_ACSR 336_ACSR] faultrate=4.8606136e-05 repair=3.7
New line.L5000_101_2 Phases=3 Bus1=N01011.1.2.3.4 Bus2=N01012.1.2.3.4 Length=186.62 units=ft Spacing=3PH_H_3_YYYY wires=[4/0_ACSR 4/0_ACSR 4/0_ACSR 336_ACSR] faultrate=4.8606136e-05 repair=3.7

New line.L5000_102 Phases=3 Bus1=N101.1.2.3.4 Bus2=N102.1.2.3.4 Length= 202.72 units=ft Spacing=3PH_H_3_YYYY wires=[336_ACSR 336_ACSR 336_ACSR 336_ACSR] faultrate=4.8606136e-05 repair=3.7
New line.L5000_103 Phases=3 Bus1=N102.1.2.3.4 Bus2=N103.1.2.3.4 Length= 204.72 units=ft Spacing=3PH_H_3_YYYY wires=[336_ACSR 336_ACSR 336_ACSR 336_ACSR] faultrate=4.8606136e-05 repair=3.7
New line.L5000_104 Phases=3 Bus1=N103.1.2.3.4 Bus2=N104.1.2.3.4 Length= 200.21 units=ft Spacing=3PH_H_3_YYYY wires=[336_ACSR 336_ACSR 336_ACSR 336_ACSR] faultrate=4.8606136e-05 repair=3.7
New line.L5000_105 Phases=3 Bus1=N104.1.2.3.4 Bus2=N105.1.2.3.4 Length= 150.91 units=ft Spacing=3PH_H_3_YYYY wires=[336_ACSR 336_ACSR 336_ACSR 336_ACSR] faultrate=4.8606136e-05 repair=3.7
New line.L5000_106 Phases=3 Bus1=N105.1.2.3.4 Bus2=N106.1.2.3.4 Length= 199.50 units=ft Spacing=3PH_H_3_YYYY wires=[336_ACSR 336_ACSR 336_ACSR 336_ACSR] faultrate=4.8606136e-05 repair=3.7
New line.L5000_107 Phases=3 Bus1=N106.1.2.3.4 Bus2=N107.1.2.3.4 Length= 187.19 units=ft Spacing=3PH_H_3_YYYY wires=[336_ACSR 336_ACSR 336_ACSR 336_ACSR] faultrate=4.8606136e-05 repair=3.7

New line.L5000_108 Phases=3 Bus1=N107.1.2.3.4 Bus2=N108.1.2.3.4 Length= 239.32 units=ft Spacing=3PH_H_3_YYYY wires=[336_ACSR 336_ACSR 336_ACSR 336_ACSR] faultrate=4.8606136e-05 repair=3.7
New line.L5000_109 Phases=3 Bus1=N108.1.2.3.4 Bus2=N109.1.2.3.4 Length= 268.03 units=ft Spacing=3PH_H_3_YYYY wires=[336_ACSR 336_ACSR 336_ACSR 336_ACSR] faultrate=4.8606136e-05 repair=3.7
New line.L5000_110 Phases=3 Bus1=N109.1.2.3.4 Bus2=N110.1.2.3.4 Length= 209.86 units=ft Spacing=3PH_H_3_YYYY wires=[336_ACSR 336_ACSR 336_ACSR 336_ACSR] faultrate=4.8606136e-05 repair=3.7
New line.L5000_111 Phases=3 Bus1=N110.1.2.3.4 Bus2=N111.1.2.3.4 Length= 222.90 units=ft Spacing=3PH_H_3_YYYY wires=[336_ACSR 336_ACSR 336_ACSR 336_ACSR] faultrate=4.8606136e-05 repair=3.7
New line.L5000_112 Phases=3 Bus1=N111.1.2.3.4 Bus2=N112.1.2.3.4 Length= 222.24 units=ft Spacing=3PH_H_3_YYYY wires=[336_ACSR 336_ACSR 336_ACSR 336_ACSR] faultrate=4.8606136e-05 repair=3.7
New line.L5000_113 Phases=3 Bus1=N112.1.2.3.4 Bus2=N113.1.2.3.4 Length= 237.63 units=ft Spacing=3PH_H_3_YYYY wires=[336_ACSR 336_ACSR 336_ACSR 336_ACSR] faultrate=4.8606136e-05 repair=3.7

New line.L5000_113_1 Phases=3 Bus1=N113.1.2.3.4 Bus2=N01131.1.2.3.4 Length= 163.22 units=ft Spacing=3PH_H_3_YYYY wires=[336_ACSR 336_ACSR 336_ACSR 336_ACSR] faultrate=4.8606136e-05 repair=3.7
New line.L5000_114 Phases=3 Bus1=N113.1.2.3.4 Bus2=N114.1.2.3.4 Length= 246.66 units=ft Spacing=3PH_H_3_YYYY wires=[336_ACSR 336_ACSR 336_ACSR 336_ACSR] faultrate=4.8606136e-05 repair=3.7

New line.L5000_114_1 Phases=3 Bus1=N114.1.2.3.4 Bus2=N01141.1.2.3.4 Length= 134.86 units=ft Spacing=3PH_H_3_YYYY wires=[6A_CW 6A_CW 6A_CW 6A_CW] faultrate=4.8606136e-05 repair=3.7

New line.L5000_115 Phases=3 Bus1=N114.1.2.3.4 Bus2=N115.1.2.3.4 Length= 266.10 units=ft Spacing=3PH_H_3_YYYY wires=[6A_CW 6A_CW 6A_CW 6A_CW] faultrate=4.8606136e-05 repair=3.7
New line.L5000_116 Phases=3 Bus1=N115.1.2.3.4 Bus2=N116.1.2.3.4 Length= 115.51 units=ft Spacing=3PH_H_3_YYYY wires=[6A_CW 6A_CW 6A_CW 6A_CW] faultrate=4.8606136e-05 repair=3.7
New line.L5000_117 Phases=3 Bus1=N116.1.2.3.4 Bus2=N117.1.2.3.4 Length= 312.92 units=ft Spacing=3PH_H_3_YYYY wires=[6A_CW 6A_CW 6A_CW 6A_CW] faultrate=4.8606136e-05 repair=3.7
New line.L5000_118 Phases=3 Bus1=N117.1.2.3.4 Bus2=N118.1.2.3.4 Length= 202.14 units=ft Spacing=3PH_H_3_YYYY wires=[6A_CW 6A_CW 6A_CW 6A_CW] faultrate=4.8606136e-05 repair=3.7
New line.L5000_119 Phases=3 Bus1=N118.1.2.3.4 Bus2=N119.1.2.3.4 Length= 316.67 units=ft Spacing=3PH_H_3_YYYY wires=[6A_CW 6A_CW 6A_CW 6A_CW] faultrate=4.8606136e-05 repair=3.7
New line.L5000_120 Phases=3 Bus1=N119.1.2.3.4 Bus2=N120.1.2.3.4 Length= 138.93 units=ft Spacing=3PH_H_3_YYYY wires=[6A_CW 6A_CW 6A_CW 6A_CW] faultrate=4.8606136e-05 repair=3.7

New line.L5000_120_1 Phases=3 Bus1=N120.1.2.3.4 Bus2=N01201.1.2.3.4 Length= 230.73 units=ft Spacing=3PH_H_3_YYYY wires=[336_ACSR 336_ACSR 336_ACSR 336_ACSR] faultrate=4.8606136e-05 repair=3.7
New line.L5000_120_2 Phases=3 Bus1=N01201.1.2.3.4 Bus2=N01202.1.2.3.4 Length= 263.33 units=ft Spacing=3PH_H_3_YYYY wires=[336_ACSR 336_ACSR 336_ACSR 336_ACSR] faultrate=4.8606136e-05 repair=3.7
New line.L5000_120_3 Phases=3 Bus1=N01202.1.2.3.4 Bus2=N01203.1.2.3.4 Length= 253.62 units=ft Spacing=3PH_H_3_YYYY wires=[336_ACSR 336_ACSR 336_ACSR 336_ACSR] faultrate=4.8606136e-05 repair=3.7

New line.L5000_121 Phases=3 Bus1=N120.1.2.3.4 Bus2=N121.1.2.3.4 Length= 179.97 units=ft Spacing=3PH_H_3_YYYY wires=[336_ACSR 336_ACSR 336_ACSR 336_ACSR] faultrate=4.8606136e-05 repair=3.7
New line.L5000_123 Phases=3 Bus1=N121.1.2.3.4 Bus2=N123.1.2.3.4 Length= 319.15 units=ft Spacing=3PH_H_3_YYYY wires=[1/0_ACSR 1/0_ACSR 1/0_ACSR 1/0_ACSR] faultrate=4.8606136e-05 repair=3.7
New line.L5000_124 Phases=3 Bus1=N123.1.2.3.4 Bus2=N124.1.2.3.4 Length= 381.12 units=ft Spacing=3PH_H_3_YYYY wires=[6A_CW 6A_CW 6A_CW 6A_CW] faultrate=4.8606136e-05 repair=3.7
New line.L5000_124_1 Phases=3 Bus1=N124.1.2.3.4 Bus2=N01241.1.2.3.4 Length= 170.80 units=ft Spacing=3PH_H_3_YYYY wires=[6A_CW 6A_CW 6A_CW 6A_CW] faultrate=4.8606136e-05 repair=3.7

New line.L5000_125 Phases=3 Bus1=N124.1.2.3.4 Bus2=N125.1.2.3.4 Length= 151.16 units=ft Spacing=3PH_H_3_YYYY wires=[1/0_ACSR 1/0_ACSR 1/0_ACSR 1/0_ACSR] faultrate=4.8606136e-05 repair=3.7
New line.L5000_126 Phases=3 Bus1=N125.1.2.3.4 Bus2=N126.1.2.3.4 Length= 235.18 units=ft Spacing=3PH_H_3_YYYY wires=[336_ACSR 336_ACSR 336_ACSR 336_ACSR] faultrate=4.8606136e-05 repair=3.7
New line.L5000_127 Phases=3 Bus1=N126.1.2.3.4 Bus2=N127.1.2.3.4 Length= 211.24 units=ft Spacing=3PH_H_3_YYYY wires=[336_ACSR 336_ACSR 336_ACSR 336_ACSR] faultrate=4.8606136e-05 repair=3.7
New line.L5000_128 Phases=3 Bus1=N127.1.2.3.4 Bus2=N128.1.2.3.4 Length= 215.34 units=ft Spacing=3PH_H_3_YYYY wires=[336_ACSR 336_ACSR 336_ACSR 336_ACSR] faultrate=4.8606136e-05 repair=3.7