! ****** LOAD DATA

!L5000****************** Feeder SINGLE PHASE LOAD DATA *******************************************

New Load.B144 Bus1=N144T.2.0 phases=1 duty=shapeB kV=0.12 kW=5.82 vminpu=0.9 vmaxpu=1.10 pf=1.0
New Load.B144_1 Bus1=N144T.2.0 phases=1 duty=shapeB kV=0.12 kW=0.46 vminpu=0.9 vmaxpu=1.10  
New Load.B143 Bus1=N143T.2.0 phases=1 duty=shapeB  kV=0.12 kW=6.27 vminpu=0.9 vmaxpu=1.10 
New Load.B143_1 Bus1=N143T.2.0 phases=1 duty=shapeB kV=0.12 kW=1.54 vminpu=0.9 vmaxpu=1.10 
New Load.B142 Bus1=N142T.2.0 phases=1 duty=shapeB  kV=0.12 kW=4.04 vminpu=0.9 vmaxpu=1.10 
New Load.B142_1 Bus1=N142T.2.0 phases=1 duty=shapeB kV=0.12 kW=6.89 vminpu=0.9 vmaxpu=1.10 
New Load.B142_2 Bus1=N142T.2.0 phases=1 duty=shapeB kV=0.12 kW=7.07 vminpu=0.9 vmaxpu=1.10 
New Load.B141_3 Bus1=N01413T.2.0 phases=1 duty=shapeB kV=0.12 kW=0.96 vminpu=0.9 vmaxpu=1.10 
New Load.B141_3_1 Bus1=N01413T.2.0 phases=1 duty=shapeB  kV=0.12 kW=1.26 vminpu=0.9 vmaxpu=1.10 
New Load.B141_3_2 Bus1=N01413T.2.0 phases=1 duty=shapeB  kV=0.12 kW=13.33 vminpu=0.9 vmaxpu=1.10 


New Load.B141_3_3 Bus1=N01413T.2.0 phases=1 duty=shapeB kV=0.12 kW=29.31 vminpu=0.9 vmaxpu=1.10 
New Load.B141_3_4 Bus1=N01413T.2.0 phases=1 duty=shapeB kV=0.12 kW=1.02 vminpu=0.9 vmaxpu=1.10 
New Load.B141_1 Bus1=N01411T.2.0 phases=1 duty=shapeB kV=0.12 kW=21.8 vminpu=0.9 vmaxpu=1.10 
New Load.B141_1_1 Bus1=N01411T.2.0 phases=1 duty=shapeB  kV=0.12 kW=2.02 vminpu=0.9 vmaxpu=1.10 
New Load.B141_1_2 Bus1=N01411T.2.0 phases=1 duty=shapeB kV=0.12 kW=5.96 vminpu=0.9 vmaxpu=1.10
New Load.B141_1_3 Bus1=N01411T.2.0 phases=1 duty=shapeB kV=0.12 kW=0 vminpu=0.9 vmaxpu=1.10
New Load.B141 Bus1=N141T.2.0 phases=1 duty=shapeB kV=0.122 kW=4.67 vminpu=0.9 vmaxpu=1.10 
New Load.B139 Bus1=N139T.2.0 phases=1 duty=shapeB kV=0.12 kW=12.37 vminpu=0.9 vmaxpu=1.10 
New Load.B138_1 Bus1=N138T.2.0 phases=1 duty=shapeB kV=0.12 kW=2.56 vminpu=0.9 vmaxpu=1.10 
New Load.B138_2 Bus1=N138T.2.0 phases=1 duty=shapeB kV=0.12 kW=7.52 vminpu=0.9 vmaxpu=1.10 

New Load.B133_4 Bus1=N01334T.2.0 phases=1 duty=shapeB kV=0.12 kW=5.82 vminpu=0.9 vmaxpu=1.10 
New Load.B133_1_1 Bus1=N013311T.2.0 phases=1 duty=shapeB kV=0.12 kW=5.7 vminpu=0.9 vmaxpu=1.10 
New Load.B130_2 Bus1=N01302T.2.0 phases=1 duty=shapeB kV=0.12 kW=22.99 vminpu=0.9 vmaxpu=1.10 
New Load.B130_1 Bus1=N01301T.2.0 phases=1 duty=shapeB kV=0.12 kW=4.48 vminpu=0.9 vmaxpu=1.10 
New Load.B130_1_1 Bus1=N01301T.2.0 phases=1 duty=shapeB kV=0.12 kW=4.32 vminpu=0.9 vmaxpu=1.10 
New Load.B130 Bus1=N130T.2.0 phases=1 duty=shapeB kV=0.12 kW=8.75 vminpu=0.9 vmaxpu=1.10 
New Load.B130_01 Bus1=N130T.2.0 phases=1 duty=shapeB kV=0.12 kW=5.69 vminpu=0.9 vmaxpu=1.10 
New Load.B128 Bus1=N128T.2.0 phases=1 duty=shapeB kV=0.12 kW=7.01 vminpu=0.9 vmaxpu=1.10 


New Load.B124_1 Bus1=N01241T.2.0 phases=1 duty=shapeB kV=0.12 kW=4.88 vminpu=0.9 vmaxpu=1.10 
New load.B124_1_1 Bus1=N01241T.2.0 phases=1 duty=shapeB kV=0.12 kW=5.64 vminpu=0.9 vmaxpu=1.10 
New Load.B123 Bus1=N123T.2.0 phases=1 duty=shapeB kV=0.12 kW=0.55 vminpu=0.9 vmaxpu=1.10 



New Load.B120_3 Bus1=N01203T.2.0 phases=1 duty=shapeB kV=0.12 kW=21.68 vminpu=0.9 vmaxpu=1.10 
New Load.B118 Bus1=N118T.2.0 phases=1 duty=shapeB kV=0.12 kW=0.15 vminpu=0.9 vmaxpu=1.10 
New Load.B118_1 Bus1=N118T.2.0 phases=1 duty=shapeB kV=0.12 kW=2.92 vminpu=0.9 vmaxpu=1.10 
New Load.B115 Bus1=N115T.2.0 phases=1 duty=shapeB kV=0.12 kW=10.03 vminpu=0.9 vmaxpu=1.10 
!New Load.B114_1_0 Bus1=N01141T.2.0 phases=1 duty=shapeB kV=0.12 kW=0 vminpu=0.9 vmaxpu=1.10 
New Load.B114_1_1 Bus1=N01141T.2.0 phases=1 duty=shapeB kV=0.12 kW=4.13 vminpu=0.9 vmaxpu=1.10 
New Load.B114_1_2 Bus1=N01141T.2.0 phases=1 duty=shapeB kV=0.12 kW=0 vminpu=0.9 vmaxpu=1.10 
New Load.B114_1_3 Bus1=N01141T.2.0 phases=1 duty=shapeB kV=0.12 kW=14.04 vminpu=0.9 vmaxpu=1.10 


New Load.B113_1_0 Bus1=N01131T.2.0 phases=1 duty=shapeB kV=0.12 kW=0.77 vminpu=0.9 vmaxpu=1.10 
New Load.B112_0 Bus1=N112T.2.0 phases=1 duty=shapeB kV=0.12 kW=7.22 vminpu=0.9 vmaxpu=1.10 
New Load.B112_1 Bus1=N112T.2.0 phases=1 duty=shapeB kV=0.12 kW=7.6 vminpu=0.9 vmaxpu=1.10 
New Load.B111 Bus1=N111T.2.0 phases=1 duty=shapeB kV=0.12 kW=18.75 vminpu=0.9 vmaxpu=1.10 
New Load.B107 Bus1=N107T.2.0 phases=1 duty=shapeB kV=0.12 kW=5.9 vminpu=0.9 vmaxpu=1.10 
New Load.B101_2 Bus1=N01012T.3.0 phases=1 duty=shapeC kV=0.12 kW=9.09 vminpu=0.9 vmaxpu=1.10 
New Load.B101_1 Bus1=N01011T.3.0 phases=1 duty=shapeC kV=0.12 kW=0.57 vminpu=0.9 vmaxpu=1.10 
New Load.B100 Bus1=N100T.1.0 phases=1 duty=shapeA kV=0.12 kW=4.72 vminpu=0.9 vmaxpu=1.10 

New Load.B99A Bus1=N99TA.1.0 phases=1 duty=shapeA kV=0.12 kW=9.01 vminpu=0.9 vmaxpu=1.10 
New Load.B99B Bus1=N99TB.2.0 phases=1 duty=shapeB kV=0.12 kW=9.01 vminpu=0.9 vmaxpu=1.10 
New Load.B99C Bus1=N99TC.3.0 phases=1 duty=shapeC kV=0.12 kW=9.01 vminpu=0.9 vmaxpu=1.10 



New Load.B94_1 Bus1=N0941TA.1.0 phases=1 duty=shapeA kV=0.12 kW=0.22 vminpu=0.9 vmaxpu=1.10 
New Load.B94_1_1 Bus1=N0941TA.1.0 phases=1 duty=shapeA kV=0.12 kW=9.84 vminpu=0.9 vmaxpu=1.10 
New Load.B94 Bus1=N94T.1.0 phases=1 duty=shapeA kV=0.12 kW=10.84 vminpu=0.9 vmaxpu=1.10 
New Load.B94_01 Bus1=N94T.1.0 phases=1 duty=shapeA kV=0.12 kW=13.16 vminpu=0.9 vmaxpu=1.10 
New Load.B92_1_0 Bus1=N0921T.3.0 phases=1 duty=shapeC kV=0.12 kW=7.27 vminpu=0.9 vmaxpu=1.10 
New Load.B92_1_1 Bus1=N0921T.3.0 phases=1 duty=shapeC kV=0.12 kW=19.51 vminpu=0.9 vmaxpu=1.10 
New Load.B91_4 Bus1=N0914T.3.0 phases=1 duty=shapeC kV=0.12 kW=11.63 vminpu=0.9 vmaxpu=1.10 
New Load.B91_3 Bus1=N0913T.3.0 phases=1 duty=shapeC kV=0.12 kW=14.76 vminpu=0.9 vmaxpu=1.10 
New Load.B91_1_0 Bus1=N0911T.1.0 phases=1 duty=shapeA kV=0.12 kW=12.23 vminpu=0.9 vmaxpu=1.10 
New Load.B91_1_1 Bus1=N0911T.1.0 phases=1 duty=shapeA kV=0.12 kW=7.79 vminpu=0.9 vmaxpu=1.10 


New Load.B91_1_2 Bus1=N0911T.1.0 phases=1 duty=shapeA kV=0.12 kW=9.24 vminpu=0.9 vmaxpu=1.10 
New Load.B90 Bus1=N90T.1.0 phases=1 duty=shapeA kV=0.12 kW=7.35 vminpu=0.9 vmaxpu=1.10 
New Load.B89 Bus1=N89T.2.0 phases=1 duty=shapeB kV=0.12 kW=10.66 vminpu=0.9 vmaxpu=1.10 
New Load.B89_1 Bus1=N89T.2.0 phases=1 duty=shapeB kV=0.12 kW=0.17 vminpu=0.9 vmaxpu=1.10 
New Load.B86_0 Bus1=N86T.1.0 phases=1 duty=shapeA kV=0.12 kW=8.09 vminpu=0.9 vmaxpu=1.10 
New Load.B86_1 Bus1=N86T.1.0 phases=1 duty=shapeA kV=0.12 kW=6.26 vminpu=0.9 vmaxpu=1.10 
New Load.B86_2 Bus1=N86T.1.0 phases=1 duty=shapeA kV=0.12 kW=16.62 vminpu=0.9 vmaxpu=1.10 
New Load.B86_3 Bus1=N86T.1.0 phases=1 duty=shapeA kV=0.12 kW=3.07 vminpu=0.9 vmaxpu=1.10 
New Load.B86_4 Bus1=N86T.1.0 phases=1 duty=shapeA kV=0.12 kW=0.99 vminpu=0.9 vmaxpu=1.10 
New Load.B86_5 Bus1=N86T.1.0 phases=1 duty=shapeA kV=0.12 kW=9.26 vminpu=0.9 vmaxpu=1.10 

New Load.B86_6 Bus1=N86T.1.0 phases=1 duty=shapeA kV=0.12 kW=9.12 vminpu=0.9 vmaxpu=1.10 
New Load.B85_0 Bus1=N85T.1.0 phases=1 duty=shapeA kV=0.12 kW=27.89 vminpu=0.9 vmaxpu=1.10 
New Load.B85_1 Bus1=N85T.1.0 phases=1 duty=shapeA kV=0.12 kW=9.9 vminpu=0.9 vmaxpu=1.10 
New Load.B84A Bus1=N84TA.1.0 phases=1 duty=shapeA kV=0.12 kW=7.69 vminpu=0.9 vmaxpu=1.10 
New Load.B84B Bus1=N84TB.2.0 phases=1 duty=shapeB kV=0.12 kW=7.69 vminpu=0.9 vmaxpu=1.10 
New Load.B84C Bus1=N84TC.3.0 phases=1 duty=shapeC kV=0.12 kW=7.69 vminpu=0.9 vmaxpu=1.10 
New Load.B83_0 Bus1=N83T.3.0 phases=1 duty=shapeC kV=0.12 kW=0 vminpu=0.9 vmaxpu=1.10 
New Load.B83_1 Bus1=N83T.3.0 phases=1 duty=shapeC kV=0.12 kW=5.84 vminpu=0.9 vmaxpu=1.10 
New Load.B83_2 Bus1=N83T.3.0 phases=1 duty=shapeC kV=0.12 kW=0.07 vminpu=0.9 vmaxpu=1.10 
New Load.B83_3 Bus1=N83T.3.0 phases=1 duty=shapeC kV=0.12 kW=7.18 vminpu=0.9 vmaxpu=1.10 
New Load.B81 Bus1=N81T.3.0 phases=1 duty=shapeC kV=0.12 kW=10.8 vminpu=0.9 vmaxpu=1.10 


New Load.B80_0 Bus1=N80T.3.0 phases=1 duty=shapeC kV=0.12 kW=9.27 vminpu=0.9 vmaxpu=1.10 
New Load.B80_1 Bus1=N80T.3.0 phases=1 duty=shapeC kV=0.12 kW=16.17 vminpu=0.9 vmaxpu=1.10 
New Load.B80_2 Bus1=N80T.3.0 phases=1 duty=shapeC kV=0.12 kW=8.62 vminpu=0.9 vmaxpu=1.10 
New Load.B80.3 Bus1=N80T.3.0 phases=1 duty=shapeC kV=0.12 kW=11.36 vminpu=0.9 vmaxpu=1.10 
New Load.B79_2A Bus1=N0792TA.1.0 phases=1 duty=shapeA kV=0.12 kW=3.99 vminpu=0.9 vmaxpu=1.10 
New Load.B79_2B Bus1=N0792TB.2.0 phases=1 duty=shapeB kV=0.12 kW=3.99 vminpu=0.9 vmaxpu=1.10 
New Load.B79_2C Bus1=N0792TC.3.0 phases=1 duty=shapeC kV=0.12 kW=3.99 vminpu=0.9 vmaxpu=1.10 
New Load.B79_1A Bus1=N0791TA.1.0 phases=1 duty=shapeA kV=0.12 kW=0.62 vminpu=0.9 vmaxpu=1.10 
New Load.B79_1B Bus1=N0791TB.2.0 phases=1 duty=shapeB kV=0.12 kW=0.62 vminpu=0.9 vmaxpu=1.10 
New Load.B79_1C Bus1=N0791TC.3.0 phases=1 duty=shapeC kV=0.12 kW=0.62 vminpu=0.9 vmaxpu=1.10 
New Load.B79_0 Bus1=N79T.3.0 phases=1 duty=shapeC kV=0.12 kW=7.83 vminpu=0.9 vmaxpu=1.10 
New Load.B79_01 Bus1=N79T.3.0 phases=1 duty=shapeC kV=0.12 kW=0.4 vminpu=0.9 vmaxpu=1.10 
New Load.B77_0 Bus1=N77T.3.0 phases=1 duty=shapeC kV=0.12 kW=17.15 vminpu=0.9 vmaxpu=1.10 
New Load.B77_1 Bus1=N77T.3.0 phases=1 duty=shapeC kV=0.12 kW=4.96 vminpu=0.9 vmaxpu=1.10 


New Load.B77_2 Bus1=N77T.3.0 phases=1 duty=shapeC kV=0.12 kW=1.27 vminpu=0.9 vmaxpu=1.10 
New Load.B77_3 Bus1=N77T.3.0 phases=1 duty=shapeC kV=0.12 kW=3.99 vminpu=0.9 vmaxpu=1.10 
New Load.B76_1A Bus1=N0761TA.1.0 phases=1 duty=shapeA kV=0.12 kW=10.46 vminpu=0.9 vmaxpu=1.10 
New Load.B76_1B Bus1=N0761TB.2.0 phases=1 duty=shapeB kV=0.12 kW=10.46 vminpu=0.9 vmaxpu=1.10 
New Load.B76_1C Bus1=N0761TC.3.0 phases=1 duty=shapeC kV=0.12 kW=10.46 vminpu=0.9 vmaxpu=1.10 
New Load.B76_1_0 Bus1=N76T.3.0 phases=1 duty=shapeC kV=0.12 kW=1.11 vminpu=0.9 vmaxpu=1.10 
New Load.B76_1_1 Bus1=N76T.3.0 phases=1 duty=shapeC kV=0.12 kW=0.48 vminpu=0.9 vmaxpu=1.10 
New Load.B76_1_2 Bus1=N76T.3.0 phases=1 duty=shapeC kV=0.12 kW=9.09 vminpu=0.9 vmaxpu=1.10 
New Load.B75_0 Bus1=N75T.3.0 phases=1 duty=shapeC kV=0.12 kW=7.3 vminpu=0.9 vmaxpu=1.10 
New Load.B75_1 Bus1=N75T.3.0 phases=1 duty=shapeC kV=0.12 kW=0.07 vminpu=0.9 vmaxpu=1.10 
New Load.B74_1A Bus1=N0741TA.1.0 phases=1 duty=shapeA kV=0.12 kW=11.83 vminpu=0.9 vmaxpu=1.10 
New Load.B74_1B Bus1=N0741TB.2.0 phases=1 duty=shapeB kV=0.12 kW=11.83 vminpu=0.9 vmaxpu=1.10 
New Load.B74_1C Bus1=N0741TC.3.0 phases=1 duty=shapeC kV=0.12 kW=11.83 vminpu=0.9 vmaxpu=1.10 



New Load.B73 Bus1=N73T.1.0 phases=1 duty=shapeA kV=0.12 kW=39.9 vminpu=0.9 vmaxpu=1.10 
New Load.B72_0 Bus1=N72T.1.0 phases=1 duty=shapeA kV=0.12 kW=10.32 vminpu=0.9 vmaxpu=1.10 
New Load.B72_1 Bus1=N72T.1.0 phases=1 duty=shapeA kV=0.12 kW=10.9 vminpu=0.9 vmaxpu=1.10 
New Load.B71A Bus1=N71TA.1.0 phases=1 duty=shapeA kV=0.12 kW=9.76 vminpu=0.9 vmaxpu=1.10 
New Load.B71B Bus1=N71TB.2.0 phases=1 duty=shapeB kV=0.12 kW=9.76 vminpu=0.9 vmaxpu=1.10 
New Load.B71C Bus1=N71TC.3.0 phases=1 duty=shapeC kV=0.12 kW=9.76 vminpu=0.9 vmaxpu=1.10 
New Load.B70_0 Bus1=N70T.1.0 phases=1 duty=shapeA kV=0.12 kW=1.91 vminpu=0.9 vmaxpu=1.10 
New Load.B70_1 Bus1=N70T.1.0 phases=1 duty=shapeA kV=0.12 kW=0.6 vminpu=0.9 vmaxpu=1.10 
New Load.B70_2 Bus1=N70T.1.0 phases=1 duty=shapeA kV=0.12 kW=11.14 vminpu=0.9 vmaxpu=1.10 

New Load.B69_1A Bus1=N0691TA.1.0 phases=1 duty=shapeA kV=0.12 kW=12.39 vminpu=0.9 vmaxpu=1.10 
New Load.B69_1B Bus1=N0691TB.2.0 phases=1 duty=shapeB kV=0.12 kW=12.39 vminpu=0.9 vmaxpu=1.10 
New Load.B69_1C Bus1=N0691TC.3.0 phases=1 duty=shapeC kV=0.12 kW=12.39 vminpu=0.9 vmaxpu=1.10 
New Load.B69 Bus1=N69T.1.0 phases=1 duty=shapeA kV=0.12 kW=3.47 vminpu=0.9 vmaxpu=1.10 
New Load.B68_3_1A Bus1=N06831TA.1.0 phases=1 duty=shapeA kV=0.12 kW=3.8 vminpu=0.9 vmaxpu=1.10 
New Load.B68_3_1B Bus1=N06831TB.2.0 phases=1 duty=shapeB kV=0.12 kW=3.8 vminpu=0.9 vmaxpu=1.10 
New Load.B68_3_1C Bus1=N06831TC.3.0 phases=1 duty=shapeC kV=0.12 kW=3.8 vminpu=0.9 vmaxpu=1.10 


New Load.B68_3_2A Bus1=N06832TA.1.0 phases=1 duty=shapeA kV=0.12 kW=0.65 vminpu=0.9 vmaxpu=1.10 
New Load.B68_3_2C Bus1=N06832TC.3.0 phases=1 duty=shapeC kV=0.12 kW=0.65 vminpu=0.9 vmaxpu=1.10 
New Load.B68_3_3A Bus1=N06833TA.1.0 phases=1 duty=shapeA kV=0.12 kW=3.81 vminpu=0.9 vmaxpu=1.10 
New Load.B68_3_3B Bus1=N06833TB.2.0 phases=1 duty=shapeB kV=0.12 kW=3.81 vminpu=0.9 vmaxpu=1.10 
New Load.B68_3_3C Bus1=N06833TC.3.0 phases=1 duty=shapeC kV=0.12 kW=3.81 vminpu=0.9 vmaxpu=1.10 
New Load.B68_2 Bus1=N0682T.3.0 phases=1 duty=shapeC kV=0.12 kW=9.6 vminpu=0.9 vmaxpu=1.10 
New Load.B68_1A Bus1=N0681TA.1.0 phases=1 duty=shapeA kV=0.12 kW=8.08 vminpu=0.9 vmaxpu=1.10 
New Load.B68_1B Bus1=N0681TB.2.0 phases=1 duty=shapeB kV=0.12 kW=8.08 vminpu=0.9 vmaxpu=1.10 
New Load.B68_1C Bus1=N0681TC.3.0 phases=1 duty=shapeC kV=0.12 kW=8.08 vminpu=0.9 vmaxpu=1.10 

New Load.B68_1_1A Bus1=N06811TA.1.0 phases=1 duty=shapeA kV=0.12 kW=8.07 vminpu=0.9 vmaxpu=1.10 
New Load.B68_1_1B Bus1=N06811TB.2.0 phases=1 duty=shapeB kV=0.12 kW=8.07 vminpu=0.9 vmaxpu=1.10 
New Load.B68_1_1C Bus1=N06811TC.3.0 phases=1 duty=shapeC kV=0.12 kW=8.07 vminpu=0.9 vmaxpu=1.10 
New Load.B67_5_1A Bus1=N06751TA.1.0 phases=1 duty=shapeA kV=0.12 kW=0.07 vminpu=0.9 vmaxpu=1.10 
New Load.B67_5_1B Bus1=N06751TB.2.0 phases=1 duty=shapeB kV=0.12 kW=0.07 vminpu=0.9 vmaxpu=1.10 
New Load.B67_5_1C Bus1=N06751TC.3.0 phases=1 duty=shapeC kV=0.12 kW=0.07 vminpu=0.9 vmaxpu=1.10 

New Load.B66 Bus1=N66T.1.0 phases=1 duty=shapeA kV=0.12 kW=9.73 vminpu=0.9 vmaxpu=1.10 
New Load.B65_0 Bus1=N65T.1.0 phases=1 duty=shapeA kV=0.12 kW=6.12 vminpu=0.9 vmaxpu=1.10 
New Load.B65_1 Bus1=N65T.1.0 phases=1 duty=shapeA kV=0.12 kW=7.25 vminpu=0.9 vmaxpu=1.10 
New Load.B64_0 Bus1=N64T.1.0 phases=1 duty=shapeA kV=0.12 kW=6.08 vminpu=0.9 vmaxpu=1.10 
New Load.B64_1 Bus1=N64T.1.0 phases=1 duty=shapeA kV=0.12 kW=25.57 vminpu=0.9 vmaxpu=1.10 
New Load.B61_0 Bus1=N61T.1.0 phases=1 duty=shapeA kV=0.12 kW=8.06 vminpu=0.9 vmaxpu=1.10 
New Load.B61_1 Bus1=N61T.1.0 phases=1 duty=shapeA kV=0.12 kW=14.78 vminpu=0.9 vmaxpu=1.10 
New Load.B61_2 Bus1=N61T.1.0 phases=1 duty=shapeA kV=0.12 kW=2.46 vminpu=0.9 vmaxpu=1.10 
New Load.B61_3 Bus1=N61T.1.0 phases=1 duty=shapeA kV=0.12 kW=10.03 vminpu=0.9 vmaxpu=1.10 
New Load.B61_4 Bus1=N61T.1.0 phases=1 duty=shapeA kV=0.12 kW=16.84 vminpu=0.9 vmaxpu=1.10 
New Load.B60_0 Bus1=N60T.1.0 phases=1 duty=shapeA kV=0.12 kW=0.1 vminpu=0.9 vmaxpu=1.10 
New Load.B60_1 Bus1=N60T.1.0 phases=1 duty=shapeA kV=0.12 kW=0.13 vminpu=0.9 vmaxpu=1.10 
New Load.B60_2 Bus1=N60T.1.0 phases=1 duty=shapeA kV=0.12 kW=58.0 vminpu=0.9 vmaxpu=1.10 
New Load.B60_3 Bus1=N60T.1.0 phases=1 duty=shapeA kV=0.12 kW=0.83 vminpu=0.9 vmaxpu=1.10 


New Load.B60_4 Bus1=N60T.1.0 phases=1 duty=shapeA kV=0.12 kW=15.6 vminpu=0.9 vmaxpu=1.10 
New Load.B59_0 Bus1=N59T.1.0 phases=1 duty=shapeA kV=0.12 kW=5.97 vminpu=0.9 vmaxpu=1.10 
New Load.B59_1 Bus1=N59T.1.0 phases=1 duty=shapeA kV=0.12 kW=8.1 vminpu=0.9 vmaxpu=1.10 
New Load.B59_2 Bus1=N59T.1.0 phases=1 duty=shapeA kV=0.12 kW=0.02 vminpu=0.9 vmaxpu=1.10 
New Load.B59_3 Bus1=N59T.1.0 phases=1 duty=shapeA kV=0.12 kW=33.19 vminpu=0.9 vmaxpu=1.10 
New Load.B59_4 Bus1=N59T.1.0 phases=1 duty=shapeA kV=0.12 kW=6.32 vminpu=0.9 vmaxpu=1.10 
New Load.B59_5 Bus1=N59T.1.0 phases=1 duty=shapeA kV=0.12 kW=10.72 vminpu=0.9 vmaxpu=1.10 
New Load.B58_0 Bus1=N58T.1.0 phases=1 duty=shapeA kV=0.12 kW=5.65 vminpu=0.9 vmaxpu=1.10 
New Load.B58_1 Bus1=N58T.1.0 phases=1 duty=shapeA kV=0.12 kW=8.0 vminpu=0.9 vmaxpu=1.10 
New Load.B58_2 Bus1=N58T.1.0 phases=1 duty=shapeA kV=0.12 kW=7.18 vminpu=0.9 vmaxpu=1.10 


New Load.B58_3 Bus1=N58T.1.0 phases=1 duty=shapeA kV=0.12 kW=15.58 vminpu=0.9 vmaxpu=1.10 
New Load.B58_4 Bus1=N58T.1.0 phases=1 duty=shapeA kV=0.12 kW=9.34 vminpu=0.9 vmaxpu=1.10 
New Load.B58_5 Bus1=N58T.1.0 phases=1 duty=shapeA kV=0.12 kW=4.06 vminpu=0.9 vmaxpu=1.10 

New Load.B57 Bus1=N57T.1.0 phases=1 duty=shapeA kV=0.12 kW=0.06 vminpu=0.9 vmaxpu=1.10 
New Load.B56 Bus1=N56T.1.0 phases=1 duty=shapeA kV=0.12 kW=17.2 vminpu=0.9 vmaxpu=1.10 

New Load.B54_0 Bus1=N54T.1.0 phases=1 duty=shapeA kV=0.12 kW=8.4 vminpu=0.9 vmaxpu=1.10 
New Load.B54_1 Bus1=N54T.1.0 phases=1 duty=shapeA kV=0.12 kW=29.97 vminpu=0.9 vmaxpu=1.10 
New Load.B54_2 Bus1=N54T.1.0 phases=1 duty=shapeA kV=0.12 kW=6.07 vminpu=0.9 vmaxpu=1.10 
New Load.B53_0 Bus1=N53T.1.0 phases=1 duty=shapeA kV=0.12 kW=1.11 vminpu=0.9 vmaxpu=1.10 
New Load.B53_1 Bus1=N53T.1.0 phases=1 duty=shapeA kV=0.12 kW=6.7 vminpu=0.9 vmaxpu=1.10 


New Load.B53_2 Bus1=N53T.1.0 phases=1 duty=shapeA kV=0.12 kW=15.34 vminpu=0.9 vmaxpu=1.10 
New Load.B53_3 Bus1=N53T.1.0 phases=1 duty=shapeA kV=0.12 kW=6.73 vminpu=0.9 vmaxpu=1.10 
New Load.B53_4 Bus1=N53T.1.0 phases=1 duty=shapeA kV=0.12 kW=11.71 vminpu=0.9 vmaxpu=1.10 
New Load.B52 Bus1=N52T.1.0 phases=1 duty=shapeA kV=0.12 kW=13.99 vminpu=0.9 vmaxpu=1.10 
New Load.B51_1A Bus1=N0511TA.1.0 phases=1 duty=shapeA kV=0.12 kW=0.07 vminpu=0.9 vmaxpu=1.10 
New Load.B51_1C Bus1=N0511TC.3.0 phases=1 duty=shapeC kV=0.12 kW=0.07 vminpu=0.9 vmaxpu=1.10 
New Load.B51_0 Bus1=N51T.1.0 phases=1 duty=shapeA kV=0.12 kW=16.81 vminpu=0.9 vmaxpu=1.10 
New Load.B51_01 Bus1=N51T.1.0 phases=1 duty=shapeA kV=0.12 kW=14.81 vminpu=0.9 vmaxpu=1.10 
New Load.B51_02 Bus1=N51T.1.0 phases=1 duty=shapeA kV=0.12 kW=0 vminpu=0.9 vmaxpu=1.10 
New Load.B50_0 Bus1=N50T.2.0 phases=1 duty=shapeB kV=0.12 kW=6.23 vminpu=0.9 vmaxpu=1.10 
New Load.B50_1 Bus1=N50T.2.0 phases=1 duty=shapeB kV=0.12 kW=22.89 vminpu=0.9 vmaxpu=1.10 


New Load.B50_2 Bus1=N50T.2.0 phases=1 duty=shapeB kV=0.12 kW=8.3 vminpu=0.9 vmaxpu=1.10 
New Load.B50_3 Bus1=N50T.2.0 phases=1 duty=shapeB kV=0.12 kW=8.89 vminpu=0.9 vmaxpu=1.10 
New Load.B50_4 Bus1=N50T.2.0 phases=1 duty=shapeB kV=0.12 kW=12.62 vminpu=0.9 vmaxpu=1.10 
New Load.B50_5 Bus1=N50T.2.0 phases=1 duty=shapeB kV=0.12 kW=0.04 vminpu=0.9 vmaxpu=1.10 
New Load.B50_6 Bus1=N50T.2.0 phases=1 duty=shapeB kV=0.12 kW=1.52 vminpu=0.9 vmaxpu=1.10 
New Load.B49_0 Bus1=N49T.2.0 phases=1 duty=shapeB kV=0.12 kW=22.89 vminpu=0.9 vmaxpu=1.10 
New Load.B49_1 Bus1=N49T.2.0 phases=1 duty=shapeB kV=0.12 kW=8.3 vminpu=0.9 vmaxpu=1.10 


New Load.B48_0A Bus1=N48TA.1.0 phases=1 duty=shapeA kV=0.12 kW=5.56 vminpu=0.9 vmaxpu=1.10 
New Load.B48_0B Bus1=N48TB.2.0 phases=1 duty=shapeB kV=0.12 kW=5.56 vminpu=0.9 vmaxpu=1.10 
New Load.B48_0C Bus1=N48TC.3.0 phases=1 duty=shapeC kV=0.12 kW=5.56 vminpu=0.9 vmaxpu=1.10 
New Load.B48_1A Bus1=N48TA.1.0 phases=1 duty=shapeA kV=0.12 kW=7.19 vminpu=0.9 vmaxpu=1.10 
New Load.B48_1B Bus1=N48TB.2.0 phases=1 duty=shapeB kV=0.12 kW=7.19 vminpu=0.9 vmaxpu=1.10 
New Load.B48_1C Bus1=N48TC.3.0 phases=1 duty=shapeC kV=0.12 kW=7.19 vminpu=0.9 vmaxpu=1.10 
New Load.B48_2A Bus1=N48TA.1.0 phases=1 duty=shapeA kV=0.12  kW=9.2 vminpu=0.9 vmaxpu=1.10 
New Load.B48_2B Bus1=N48TB.2.0 phases=1 duty=shapeB kV=0.12 kW=9.2 vminpu=0.9 vmaxpu=1.10 
New Load.B48_2C Bus1=N48TC.3.0 phases=1 duty=shapeC kV=0.12 kW=9.2 vminpu=0.9 vmaxpu=1.10 
New Load.B48_3A Bus1=N48TA.1.0 phases=1 duty=shapeA kV=0.12 kW=0.15 vminpu=0.9 vmaxpu=1.10 
New Load.B48_3B Bus1=N48TB.2.0 phases=1 duty=shapeB kV=0.12 kW=0.15 vminpu=0.9 vmaxpu=1.10 
New Load.B48_3C Bus1=N48TC.3.0 phases=1 duty=shapeC kV=0.12 kW=0.15 vminpu=0.9 vmaxpu=1.10 
New Load.B48_4A Bus1=N48TA.1.0 phases=1 duty=shapeA kV=0.12 kW=17.03 vminpu=0.9 vmaxpu=1.10 
New Load.B48_4B Bus1=N48TB.2.0 phases=1 duty=shapeB kV=0.12 kW=17.03 vminpu=0.9 vmaxpu=1.10 
New Load.B48_4C Bus1=N48TC.3.0 phases=1 duty=shapeC kV=0.12 kW=17.03 vminpu=0.9 vmaxpu=1.10 
New Load.B46 Bus1=N46T.2.0 phases=1 duty=shapeB kV=0.12 kW=19.79 vminpu=0.9 vmaxpu=1.10 

New Load.B45_0A Bus1=N45TA.1.0 phases=1 duty=shapeA kV=0.12 kW=5.76 vminpu=0.9 vmaxpu=1.10 
New Load.B45_0B Bus1=N45TB.2.0 phases=1 duty=shapeB kV=0.12 kW=5.76 vminpu=0.9 vmaxpu=1.10 
New Load.B45_0C Bus1=N45TC.3.0 phases=1 duty=shapeC kV=0.12 kW=5.76 vminpu=0.9 vmaxpu=1.10 
New Load.B45_1A Bus1=N45TA.1.0 phases=1 duty=shapeA kV=0.12 kW=2.57 vminpu=0.9 vmaxpu=1.10 
New Load.B45_1B Bus1=N45TB.2.0 phases=1 duty=shapeB kV=0.12 kW=2.57 vminpu=0.9 vmaxpu=1.10 
New Load.B45_1C Bus1=N45TC.3.0 phases=1 duty=shapeC kV=0.12 kW=2.57 vminpu=0.9 vmaxpu=1.10 
New Load.B45_2A Bus1=N45TA.1.0 phases=1 duty=shapeA kV=0.12 kW=8.86 vminpu=0.9 vmaxpu=1.10 
New Load.B45_2B Bus1=N45TB.2.0 phases=1 duty=shapeB kV=0.12 kW=8.86 vminpu=0.9 vmaxpu=1.10 
New Load.B45_2C Bus1=N45TC.3.0 phases=1 duty=shapeC kV=0.12 kW=8.86 vminpu=0.9 vmaxpu=1.10 
New Load.B45_3A Bus1=N45TA.1.0 phases=1 duty=shapeA kV=0.12 kW=1.44 vminpu=0.9 vmaxpu=1.10 
New Load.B45_3B Bus1=N45TB.2.0 phases=1 duty=shapeB kV=0.12 kW=1.44 vminpu=0.9 vmaxpu=1.10 
New Load.B45_3C Bus1=N45TC.3.0 phases=1 duty=shapeC kV=0.12 kW=1.44 vminpu=0.9 vmaxpu=1.10 
New Load.B45_4A Bus1=N45TA.1.0 phases=1 duty=shapeA kV=0.12 kW=17.02 vminpu=0.9 vmaxpu=1.10 
New Load.B45_4B Bus1=N45TB.2.0 phases=1 duty=shapeB kV=0.12 kW=17.02 vminpu=0.9 vmaxpu=1.10 
New Load.B45_4C Bus1=N45TC.3.0 phases=1 duty=shapeC kV=0.12 kW=17.02 vminpu=0.9 vmaxpu=1.10 



New Load.B44_0 Bus1=N44T.3.0 phases=1 duty=shapeC kV=0.12 kW=7.86 vminpu=0.9 vmaxpu=1.10 
New Load.B44_1 Bus1=N44T.3.0 phases=1 duty=shapeC kV=0.12 kW=4.47 vminpu=0.9 vmaxpu=1.10 
New Load.B44_2 Bus1=N44T.3.0 phases=1 duty=shapeC kV=0.12 kW=1.93 vminpu=0.9 vmaxpu=1.10 
New Load.B44_3 Bus1=N44T.3.0 phases=1 duty=shapeC kV=0.12 kW=6.87 vminpu=0.9 vmaxpu=1.10 
New Load.B44_4 Bus1=N44T.3.0 phases=1 duty=shapeC kV=0.12 kW=4.3 vminpu=0.9 vmaxpu=1.10 
New Load.B44_5 Bus1=N44T.3.0 phases=1 duty=shapeC kV=0.12 kW=2.67 vminpu=0.9 vmaxpu=1.10 
New Load.B44_6 Bus1=N44T.3.0 phases=1 duty=shapeC kV=0.12 kW=11.39 vminpu=0.9 vmaxpu=1.10 
New Load.B44_7 Bus1=N44T.3.0 phases=1 duty=shapeC kV=0.12 kW=25.99 vminpu=0.9 vmaxpu=1.10 
New Load.B44_8 Bus1=N44T.3.0 phases=1 duty=shapeC kV=0.12 kW=18.7 vminpu=0.9 vmaxpu=1.10 
New Load.B42_0 Bus1=N42T.3.0 phases=1 duty=shapeC kV=0.12 kW=0.35 vminpu=0.9 vmaxpu=1.10 
New Load.B42_1 Bus1=N42T.3.0 phases=1 duty=shapeC kV=0.12 kW=10.42 vminpu=0.9 vmaxpu=1.10 
New Load.B42_2 Bus1=N42T.3.0 phases=1 duty=shapeC kV=0.12 kW=13.16 vminpu=0.9 vmaxpu=1.10 


New Load.B42_3 Bus1=N42T.3.0 phases=1 duty=shapeC kV=0.12 kW=10.69 vminpu=0.9 vmaxpu=1.10 
New Load.B41_0 Bus1=N41T.3.0 phases=1 duty=shapeC kV=0.12 kW=9.65 vminpu=0.9 vmaxpu=1.10 
New Load.B41_1 Bus1=N41T.3.0 phases=1 duty=shapeC kV=0.12 kW=9.14 vminpu=0.9 vmaxpu=1.10 
New Load.B41_2 Bus1=N41T.3.0 phases=1 duty=shapeC kV=0.12 kW=5.59 vminpu=0.9 vmaxpu=1.10 



New Load.B40_0 Bus1=N40T.3.0 phases=1 duty=shapeC kV=0.12 kW=26.29 vminpu=0.9 vmaxpu=1.10 
New Load.B40_1 Bus1=N40T.3.0 phases=1 duty=shapeC kV=0.12 kW=3.43 vminpu=0.9 vmaxpu=1.10 
New Load.B40_2 Bus1=N40T.3.0 phases=1 duty=shapeC kV=0.12 kW=19.57 vminpu=0.9 vmaxpu=1.10 
New Load.B39_0 Bus1=N39T.3.0 phases=1 duty=shapeC kV=0.12 kW=12.01 vminpu=0.9 vmaxpu=1.10 
New Load.B39_1 Bus1=N39T.3.0 phases=1 duty=shapeC kV=0.12 kW=20.57 vminpu=0.9 vmaxpu=1.10 
New Load.B39_2 Bus1=N39T.3.0 phases=1 duty=shapeC kV=0.12 kW=16.8 vminpu=0.9 vmaxpu=1.10 
New Load.B39_3 Bus1=N39T.3.0 phases=1 duty=shapeC kV=0.12 kW=6.53 vminpu=0.9 vmaxpu=1.10 
New Load.B37_0 Bus1=N37T.1.0 phases=1 duty=shapeA kV=0.12 kW=15.34 vminpu=0.9 vmaxpu=1.10 
New Load.B37_1 Bus1=N37T.1.0 phases=1 duty=shapeA kV=0.12 kW=15.01 vminpu=0.9 vmaxpu=1.10 
New Load.B37_2 Bus1=N37T.1.0 phases=1 duty=shapeA kV=0.12 kW=6.84 vminpu=0.9 vmaxpu=1.10 
New Load.B37_3 Bus1=N37T.1.0 phases=1 duty=shapeA kV=0.12 kW=11.66 vminpu=0.9 vmaxpu=1.10 

New Load.B37_4 Bus1=N37T.1.0 phases=1 duty=shapeA kV=0.12 kW=21.15 vminpu=0.9 vmaxpu=1.10 
New Load.B35 Bus1=N35T.1.0 phases=1 duty=shapeA kV=0.12 kW=11.4 vminpu=0.9 vmaxpu=1.10 
New Load.B34 Bus1=N34T.1.0 phases=1 duty=shapeA kV=0.12 kW=6.22 vminpu=0.9 vmaxpu=1.10 
New Load.B33_0 Bus1=N33T.1.0 phases=1 duty=shapeA kV=0.12 kW=5.82 vminpu=0.9 vmaxpu=1.10 
New Load.B33_1 Bus1=N33T.1.0 phases=1 duty=shapeA kV=0.12 kW=24.11 vminpu=0.9 vmaxpu=1.10 
New Load.B33_2 Bus1=N33T.1.0 phases=1 duty=shapeA kV=0.12 kW=5.6 vminpu=0.9 vmaxpu=1.10 
New Load.B33_3 Bus1=N33T.1.0 phases=1 duty=shapeA kV=0.12 kW=11.08 vminpu=0.9 vmaxpu=1.10 
New Load.B33_4 Bus1=N33T.1.0 phases=1 duty=shapeA kV=0.12 kW=7.11 vminpu=0.9 vmaxpu=1.10 
New Load.B33_5 Bus1=N33T.1.0 phases=1 duty=shapeA kV=0.12 kW=13.34 vminpu=0.9 vmaxpu=1.10 
New Load.B30_2A Bus1=N0302TA.1.0 phases=1 duty=shapeA kV=0.12 kW=3.78 vminpu=0.9 vmaxpu=1.10 
New Load.B30_2B Bus1=N0302TB.2.0 phases=1 duty=shapeB kV=0.12 kW=3.78 vminpu=0.9 vmaxpu=1.10 
New Load.B30_1A Bus1=N0301TA.1.0 phases=1 duty=shapeA kV=0.12 kW=10.72 vminpu=0.9 vmaxpu=1.10 
New Load.B30_1B Bus1=N0301TB.2.0 phases=1 duty=shapeB kV=0.12 kW=10.72 vminpu=0.9 vmaxpu=1.10 
New Load.B30_1C Bus1=N0301TC.3.0 phases=1 duty=shapeC kV=0.12 kW=10.72 vminpu=0.9 vmaxpu=1.10 








New Load.B30A Bus1=N30TA.1.0 phases=1 duty=shapeA kV=0.12 kW=5.77 vminpu=0.9 vmaxpu=1.10 
New Load.B30B Bus1=N30TB.2.0 phases=1 duty=shapeB kV=0.12 kW=5.77 vminpu=0.9 vmaxpu=1.10 
New Load.B29 Bus1=N29T.1.0 phases=1 duty=shapeA kV=0.12 kW=11.45 vminpu=0.9 vmaxpu=1.10 
New Load.B28_0 Bus1=N28T.1.0 phases=1 duty=shapeA kV=0.12 kW=1.88 vminpu=0.9 vmaxpu=1.10 
New Load.B28_1 Bus1=N28T.1.0 phases=1 duty=shapeA kV=0.12 kW=11.0 vminpu=0.9 vmaxpu=1.10 


New Load.B28_2 Bus1=N28T.1.0 phases=1 duty=shapeA kV=0.12 kW=12.73 vminpu=0.9 vmaxpu=1.10 
New Load.B27 Bus1=N27T.1.0 phases=1 duty=shapeA kV=0.12 kW=14.83 vminpu=0.9 vmaxpu=1.10 
New Load.B26_0 Bus1=N26T.1.0 phases=1 duty=shapeA kV=0.12 kW=9.01 vminpu=0.9 vmaxpu=1.10 
New Load.B26_1 Bus1=N26T.1.0 phases=1 duty=shapeA kV=0.12 kW=4.49 vminpu=0.9 vmaxpu=1.10 
New Load.B26_2 Bus1=N26T.1.0 phases=1 duty=shapeA kV=0.12 kW=9.4 vminpu=0.9 vmaxpu=1.10 
New Load.B26_3 Bus1=N26T.1.0 phases=1 duty=shapeA kV=0.12 kW=7.48 vminpu=0.9 vmaxpu=1.10 
New Load.B26_4 Bus1=N26T.1.0 phases=1 duty=shapeA kV=0.12 kW=5.46 vminpu=0.9 vmaxpu=1.10 
New Load.B26_5 Bus1=N26T.1.0 phases=1 duty=shapeA kV=0.12 kW=13.67 vminpu=0.9 vmaxpu=1.10 
New Load.B26_6 Bus1=N26T.1.0 phases=1 duty=shapeA kV=0.12 kW=5.36 vminpu=0.9 vmaxpu=1.10 
New Load.B26_7 Bus1=N26T.1.0 phases=1 duty=shapeA kV=0.12 kW=16.78 vminpu=0.9 vmaxpu=1.10 


New Load.B26_8 Bus1=N26T.1.0 phases=1 duty=shapeA kV=0.12 kW=22.89 vminpu=0.9 vmaxpu=1.10 
New Load.B26_9 Bus1=N26T.1.0 phases=1 duty=shapeA kV=0.12 kW=5.38 vminpu=0.9 vmaxpu=1.10 
New Load.B26_10 Bus1=N26T.1.0 phases=1 duty=shapeA kV=0.12 kW=20.31 vminpu=0.9 vmaxpu=1.10 
New Load.B25_0 Bus1=N25T.1.0 phases=1 duty=shapeA kV=0.12 kW=7.92 vminpu=0.9 vmaxpu=1.10 
New Load.B25_1 Bus1=N25T.1.0 phases=1 duty=shapeA kV=0.12 kW=1.45 vminpu=0.9 vmaxpu=1.10 
New Load.B25_2 Bus1=N25T.1.0 phases=1 duty=shapeA kV=0.12 kW=5.73 vminpu=0.9 vmaxpu=1.10 
New Load.B25_3 Bus1=N25T.1.0 phases=1 duty=shapeA kV=0.12 kW=1.19 vminpu=0.9 vmaxpu=1.10 
New Load.B25_4 Bus1=N25T.1.0 phases=1 duty=shapeA kV=0.12 kW=14.23 vminpu=0.9 vmaxpu=1.10 
New Load.B24_0 Bus1=N24T.3.0 phases=1 duty=shapeC kV=0.12 kW=1.88 vminpu=0.9 vmaxpu=1.10 
New Load.B24_1 Bus1=N24T.3.0 phases=1 duty=shapeC kV=0.12 kW=1.63 vminpu=0.9 vmaxpu=1.10 


New Load.B23_0 Bus1=N23T.3.0 phases=1 duty=shapeC kV=0.12 kW=7.87 vminpu=0.9 vmaxpu=1.10 
New Load.B23_1 Bus1=N23T.3.0 phases=1 duty=shapeC kV=0.12 kW=4.62 vminpu=0.9 vmaxpu=1.10 
New Load.B23_2 Bus1=N23T.3.0 phases=1 duty=shapeC kV=0.12 kW=4.91 vminpu=0.9 vmaxpu=1.10 
New Load.B22 Bus1=N22T.3.0 phases=1 duty=shapeC kV=0.12 kW=0 vminpu=0.9 vmaxpu=1.10 
New Load.B21_2 Bus1=N0212T.1.0 phases=1 duty=shapeA kV=0.12 kW=2.89 vminpu=0.9 vmaxpu=1.10 
New Load.B21 Bus1=N21T.3.0 phases=1 duty=shapeC kV=0.12 kW=0.5 vminpu=0.9 vmaxpu=1.10 

New Load.B20_0 Bus1=N20T.3.0 phases=1 duty=shapeC kV=0.12 kW=0.2 vminpu=0.9 vmaxpu=1.10 
New Load.B20_1 Bus1=N20T.3.0 phases=1 duty=shapeC kV=0.12 kW=0.95 vminpu=0.9 vmaxpu=1.10 
New Load.B19_0 Bus1=N19T.3.0 phases=1 duty=shapeC kV=0.12 kW=63.89 vminpu=0.9 vmaxpu=1.10 
New Load.B19_1 Bus1=N19T.3.0 phases=1 duty=shapeC kV=0.12 kW=1.12 vminpu=0.9 vmaxpu=1.10 


New Load.B19_2 Bus1=N19T.3.0 phases=1 duty=shapeC kV=0.12 kW=0 vminpu=0.9 vmaxpu=1.10 
New Load.B18_0 Bus1=N18T.3.0 phases=1 duty=shapeC kV=0.12 kW=1.32 vminpu=0.9 vmaxpu=1.10 
New Load.B18_1 Bus1=N18T.3.0 phases=1 duty=shapeC kV=0.12 kW=6.95 vminpu=0.9 vmaxpu=1.10 
New Load.B18_2 Bus1=N18T.3.0 phases=1 duty=shapeC kV=0.12 kW=1.78 vminpu=0.9 vmaxpu=1.10 
New Load.B18_3 Bus1=N18T.3.0 phases=1 duty=shapeC kV=0.12 kW=0 vminpu=0.9 vmaxpu=1.10 
New Load.B18_4 Bus1=N18T.3.0 phases=1 duty=shapeC kV=0.12 kW=5.32 vminpu=0.9 vmaxpu=1.10 
New Load.B18_5 Bus1=N18T.3.0 phases=1 duty=shapeC kV=0.12 kW=13.57 vminpu=0.9 vmaxpu=1.10 
New Load.B18_6 Bus1=N18T.3.0 phases=1 duty=shapeC kV=0.12 kW=24.74 vminpu=0.9 vmaxpu=1.10 
New Load.B17 Bus1=N17T.3.0 phases=1 duty=shapeC kV=0.12 kW=20.99 vminpu=0.9 vmaxpu=1.10 
New Load.B16_0 Bus1=N16T.3.0 phases=1 duty=shapeC kV=0.12 kW=12.89 vminpu=0.9 vmaxpu=1.10 


New Load.B16_1 Bus1=N16T.3.0 phases=1 duty=shapeC kV=0.12 kW=10.87 vminpu=0.9 vmaxpu=1.10 
New Load.B16_2 Bus1=N16T.3.0 phases=1 duty=shapeC kV=0.12 kW=15.97 vminpu=0.9 vmaxpu=1.10 
New Load.B16_3 Bus1=N16T.3.0 phases=1 duty=shapeC kV=0.12 kW=15.1 vminpu=0.9 vmaxpu=1.10 
New Load.B15 Bus1=N15T.3.0 phases=1 duty=shapeC kV=0.12 kW=0.86 vminpu=0.9 vmaxpu=1.10 
New Load.B14_0 Bus1=N14T.3.0 phases=1 duty=shapeC kV=0.12 kW=0.2 vminpu=0.9 vmaxpu=1.10 
New Load.B14_1 Bus1=N14T.3.0 phases=1 duty=shapeC kV=0.12 kW=9.45 vminpu=0.9 vmaxpu=1.10 
New Load.B14_2 Bus1=N14T.3.0 phases=1 duty=shapeC kV=0.12 kW=7.43 vminpu=0.9 vmaxpu=1.10 
New Load.B14_3 Bus1=N14T.3.0 phases=1 duty=shapeC kV=0.12 kW=6.54 vminpu=0.9 vmaxpu=1.10 
New Load.B14_4 Bus1=N14T.3.0 phases=1 duty=shapeC kV=0.12 kW=5.32 vminpu=0.9 vmaxpu=1.10 
New Load.B14_5 Bus1=N14T.3.0 phases=1 duty=shapeC kV=0.12 kW=9.17 vminpu=0.9 vmaxpu=1.10 


New Load.B12 Bus1=N12T.3.0 phases=1 duty=shapeC kV=0.12 kW=7.88 vminpu=0.9 vmaxpu=1.10 
New Load.B10_0 Bus1=N10T.3.0 phases=1 duty=shapeC kV=0.12 kW=6.65 vminpu=0.9 vmaxpu=1.10 
New Load.B10_1 Bus1=N10T.3.0 phases=1 duty=shapeC kV=0.12 kW=5.11 vminpu=0.9 vmaxpu=1.10 
New Load.B10_2 Bus1=N10T.3.0 phases=1 duty=shapeC kV=0.12 kW=15.88 vminpu=0.9 vmaxpu=1.10 
New Load.B10_3 Bus1=N10T.3.0 phases=1 duty=shapeC kV=0.12 kW=11.75 vminpu=0.9 vmaxpu=1.10 
New Load.B10_4 Bus1=N10T.3.0 phases=1 duty=shapeC kV=0.12 kW=11.95 vminpu=0.9 vmaxpu=1.10 
New Load.B9_3 Bus1=N093T.3.0 phases=1 duty=shapeC kV=0.12 kW=0.72 vminpu=0.9 vmaxpu=1.10 