! converted from CYME5.04 .sxst-file with OpenDSS_SFC.py (version: 01.00.012, last update: 03/22/2017)

! overhead lines by phase
New line.1  Phases=1 Bus1=189_3739545.1 Bus2=9_1306801.1 Length=19.944523 units=m Spacing=1PH_1_YNNY wires=[4_ACSR 4_ACSR] faultrate=4.8606136e-05 repair=3.7
New line.227_2736023_10  Phases=3 Bus1=941_6309792.1.2.3 Bus2=941_6315057.1.2.3 Length=22.302476 units=m Spacing=3PH_H_3_YYYY wires=[1/0_ACSR 1/0_ACSR 1/0_ACSR 1/0_ACSR] faultrate=4.8606136e-05 repair=3.7
New line.227_2736023_12  Phases=3 Bus1=941_6315057.1.2.3 Bus2=226_409546.1.2.3 Length=16.991614 units=m Spacing=3PH_H_3_YYYY wires=[1/0_ACSR 1/0_ACSR 1/0_ACSR 1/0_ACSR] faultrate=4.8606136e-05 repair=3.7
New line.227_2736023_17  Phases=3 Bus1=226_409546.1.2.3 Bus2=204_1267300.1.2.3 Length=2.904913 units=m Spacing=3PH_H_3_YYYY wires=[1/0_ACSR 1/0_ACSR 1/0_ACSR 1/0_ACSR] faultrate=4.8606136e-05 repair=3.7
New line.227_2736023_6  Phases=3 Bus1=941_6309792.1.2.3 Bus2=941_6315057.1.2.3 Length=22.302476 units=m Spacing=3PH_H_3_YYYY wires=[1/0_ACSR 1/0_ACSR 1/0_ACSR 1/0_ACSR] faultrate=4.8606136e-05 repair=3.7
New line.227_2736081_1  Phases=1 Bus1=188_12024.3 Bus2=204_669812.3 Length=4.754475 units=m Spacing=1PH_1_NNYY wires=[2_ACSR 1/0_ACSR] faultrate=4.8606136e-05 repair=3.7
New line.227_2736132_3  Phases=1 Bus1=188_12918.2 Bus2=941_6417492.2 Length=41.744735 units=m Spacing=1PH_1_NYNY wires=[2_ACSR 2_ACSR] faultrate=4.8606136e-05 repair=3.7
New line.227_2736132_5  Phases=1 Bus1=941_6417492.2 Bus2=941_8979265.2 Length=41.267243 units=m Spacing=1PH_1_NYNY wires=[2_ACSR 2_ACSR] faultrate=4.8606136e-05 repair=3.7
New line.227_2736135_2  Phases=3 Bus1=195_1482195.1.2.3 Bus2=941_6308994.1.2.3 Length=58.500943 units=m Spacing=3PH_H_3_YYYY wires=[1/0_ACSR 1/0_ACSR 1/0_ACSR 1/0_ACSR] faultrate=4.8606136e-05 repair=3.7
New line.227_2736158_10  Phases=3 Bus1=189_3751892.1.2.3 Bus2=941_6430828.1.2.3 Length=4.739426 units=m Spacing=3PH_H_3_YYYY wires=[336_ACSR 336_ACSR 336_ACSR 4/0_ACSR] faultrate=4.8606136e-05 repair=3.7
New line.227_2736158_11  Phases=3 Bus1=189_3751891.1.2.3 Bus2=189_3751892.1.2.3 Length=59.392906 units=m Spacing=3PH_H_3_YYYY wires=[336_ACSR 336_ACSR 336_ACSR 4/0_ACSR] faultrate=4.8606136e-05 repair=3.7
New line.227_2736158_5  Phases=3 Bus1=188_12739.1.2.3 Bus2=189_3735066.1.2.3 Length=6.979981 units=m Spacing=3PH_H_3_YYYY wires=[336_ACSR 336_ACSR 336_ACSR 4/0_ACSR] faultrate=4.8606136e-05 repair=3.7
New line.227_2736158_6  Phases=3 Bus1=941_6430828.1.2.3 Bus2=941_3220122.1.2.3 Length=130.837919 units=m Spacing=3PH_H_3_YYYY wires=[336_ACSR 336_ACSR 336_ACSR 4/0_ACSR] faultrate=4.8606136e-05 repair=3.7
New line.227_2736158_9  Phases=3 Bus1=189_3735066.1.2.3 Bus2=189_3751891.1.2.3 Length=57.558206 units=m Spacing=3PH_H_3_YYYY wires=[336_ACSR 336_ACSR 336_ACSR 4/0_ACSR] faultrate=4.8606136e-05 repair=3.7
New line.227_2736206_1  Phases=3 Bus1=195_1467482.1.2.3 Bus2=202_65565.1.2.3 Length=40.435602 units=m Spacing=3PH_H_3_YYYY wires=[336_ACSR 336_ACSR 336_ACSR 3/0_ACSR] faultrate=4.8606136e-05 repair=3.7
New line.227_2736226_2  Phases=2 Bus1=941_6308997.2.3 Bus2=941_6309036.2.3 Length=108.708415 units=m Spacing=2PH_H_2_NYYY wires=[2_ACSR 2_ACSR 2_ACSR] faultrate=4.8606136e-05 repair=3.7
New line.227_2736228_5  Phases=3 Bus1=189_2629571.1.2.3 Bus2=941_6314980.1.2.3 Length=33.768130 units=m Spacing=3PH_H_3_YYYY wires=[336_ACSR 336_ACSR 336_ACSR 3/0_ACSR] faultrate=4.8606136e-05 repair=3.7
New line.227_2736228_6  Phases=3 Bus1=941_9052479.1.2.3 Bus2=941_6314980.1.2.3 Length=33.768130 units=m Spacing=3PH_H_3_YYYY wires=[336_ACSR 336_ACSR 336_ACSR 3/0_ACSR] faultrate=4.8606136e-05 repair=3.7
New line.227_2736245_2  Phases=3 Bus1=941_6309113.1.2.3 Bus2=941_6309078.1.2.3 Length=131.099592 units=m Spacing=3PH_H_3_YYYY wires=[336_ACSR 336_ACSR 336_ACSR 3/0_ACSR] faultrate=4.8606136e-05 repair=3.7
New line.227_2736245_3  Phases=3 Bus1=941_6309113.1.2.3 Bus2=941_9002184.1.2.3 Length=82.613895 units=m Spacing=3PH_H_3_YYYY wires=[336_ACSR 336_ACSR 336_ACSR 3/0_ACSR] faultrate=4.8606136e-05 repair=3.7
New line.227_2736288_3  Phases=3 Bus1=195_1473511.1.2.3 Bus2=195_1482017.1.2.3 Length=84.746090 units=m Spacing=3PH_H_3_YYYY wires=[336_ACSR 336_ACSR 336_ACSR 3/0_ACSR] faultrate=4.8606136e-05 repair=3.7
New line.227_2736288_4  Phases=3 Bus1=195_1473511.1.2.3 Bus2=941_6962275.1.2.3 Length=4.751505 units=m Spacing=3PH_H_3_YYYY wires=[336_ACSR 336_ACSR 336_ACSR 3/0_ACSR] faultrate=4.8606136e-05 repair=3.7
New line.227_2736288_5  Phases=3 Bus1=941_6962275.1.2.3 Bus2=195_1482017.1.2.3 Length=79.994585 units=m Spacing=3PH_H_3_YYYY wires=[336_ACSR 336_ACSR 336_ACSR 3/0_ACSR] faultrate=4.8606136e-05 repair=3.7
New line.227_2736309_2  Phases=3 Bus1=941_8983174.1.2.3 Bus2=195_1468475.1.2.3 Length=43.208347 units=m Spacing=3PH_H_3_YYYY wires=[2_ACSR 2_ACSR 2_ACSR 2_ACSR] faultrate=4.8606136e-05 repair=3.7
New line.227_2736316_2  Phases=1 Bus1=941_6356829.1 Bus2=195_1496147.1 Length=94.367528 units=m Spacing=1PH_1_YNNY wires=[2_ACSR 2_ACSR] faultrate=4.8606136e-05 repair=3.7
New line.227_2736316_6  Phases=1 Bus1=941_6356829.1 Bus2=195_1493750.1 Length=1.628246 units=m Spacing=1PH_1_YNNY wires=[2_ACSR 2_ACSR] faultrate=4.8606136e-05 repair=3.7
New line.227_2736316_7  Phases=1 Bus1=941_6356829.1 Bus2=195_1496147.1 Length=94.367528 units=m Spacing=1PH_1_YNNY wires=[2_ACSR 2_ACSR] faultrate=4.8606136e-05 repair=3.7
New line.227_2736369_1  Phases=1 Bus1=195_1493749.1 Bus2=188_11991.1 Length=76.542864 units=m Spacing=1PH_1_YNNY wires=[4_ACSR 4_ACSR] faultrate=4.8606136e-05 repair=3.7
New line.227_2736413_2  Phases=1 Bus1=941_6309011.2 Bus2=195_1489913.2 Length=373.207537 units=m Spacing=1PH_1_NYNY wires=[2_ACSR 2_ACSR] faultrate=4.8606136e-05 repair=3.7
New line.227_2736413_4  Phases=1 Bus1=941_8998836.2 Bus2=195_1489913.2 Length=134.235403 units=m Spacing=1PH_1_NYNY wires=[2_ACSR 2_ACSR] faultrate=4.8606136e-05 repair=3.7
New line.227_2736477_4  Phases=1 Bus1=941_6314923.1 Bus2=204_676396.1 Length=7.742980 units=m Spacing=1PH_1_YNNY wires=[2_ACSR 2_ACSR] faultrate=4.8606136e-05 repair=3.7
New line.227_2736478_1  Phases=1 Bus1=195_1467504.1 Bus2=189_2617127.1 Length=43.355406 units=m Spacing=1PH_1_YNNY wires=[4_ACSR 4_ACSR] faultrate=4.8606136e-05 repair=3.7
New line.227_2736478_2  Phases=1 Bus1=189_2617127.1 Bus2=195_1467505.1 Length=31.462875 units=m Spacing=1PH_1_YNNY wires=[4_ACSR 4_ACSR] faultrate=4.8606136e-05 repair=3.7
New line.227_2736487_1  Phases=3 Bus1=195_1475060.1.2.3 Bus2=195_1478235.1.2.3 Length=89.171972 units=m Spacing=3PH_H_3_YYYY wires=[2_ACSR 2_ACSR 2_ACSR 2_ACSR] faultrate=4.8606136e-05 repair=3.7
New line.227_2736497_1  Phases=1 Bus1=204_669285.1 Bus2=195_1472915.1 Length=56.924436 units=m Spacing=1PH_1_YNNY wires=[2_ACSR 2_ACSR] faultrate=4.8606136e-05 repair=3.7
New line.227_2736514_2  Phases=1 Bus1=941_6308985.1 Bus2=195_1467739.1 Length=67.613626 units=m Spacing=1PH_1_YNNY wires=[2_ACSR 2_ACSR] faultrate=4.8606136e-05 repair=3.7
New line.227_2736517_1  Phases=1 Bus1=188_12702.1 Bus2=195_1482856.1 Length=158.380176 units=m Spacing=1PH_1_YNNY wires=[2_ACSR 2_ACSR] faultrate=4.8606136e-05 repair=3.7
New line.227_2736517_2  Phases=1 Bus1=941_9001142.1 Bus2=195_1482856.1 Length=79.525835 units=m Spacing=1PH_1_YNNY wires=[2_ACSR 2_ACSR] faultrate=4.8606136e-05 repair=3.7
New line.227_2736537_6  Phases=1 Bus1=188_12030.1 Bus2=941_7275691.1 Length=31.821304 units=m Spacing=1PH_1_YNNY wires=[2_ACSR 2_ACSR] faultrate=4.8606136e-05 repair=3.7
New line.227_2736537_7  Phases=1 Bus1=941_7275691.1 Bus2=941_7275692.1 Length=3.343526 units=m Spacing=1PH_1_YNNY wires=[2_ACSR 2_ACSR] faultrate=4.8606136e-05 repair=3.7
New line.227_2736606_7  Phases=3 Bus1=941_8979176.1.2.3 Bus2=195_1467484.1.2.3 Length=74.321223 units=m Spacing=3PH_H_3_YYYY wires=[336_ACSR 336_ACSR 336_ACSR 3/0_ACSR] faultrate=4.8606136e-05 repair=3.7
New line.227_2736615_2  Phases=2 Bus1=188_12233.1.2 Bus2=189_3752210.1.2 Length=29.489204 units=m Spacing=2PH_H_2_YYNY wires=[2_ACSR 2_ACSR 1/0_ACSR] faultrate=4.8606136e-05 repair=3.7
New line.227_2736615_3  Phases=2 Bus1=189_3752210.1.2 Bus2=195_1467487.1.2 Length=18.088307 units=m Spacing=2PH_H_2_YYNY wires=[2_ACSR 2_ACSR 1/0_ACSR] faultrate=4.8606136e-05 repair=3.7
New line.227_2736633_1  Phases=1 Bus1=195_1489221.2 Bus2=195_1484542.2 Length=71.902568 units=m Spacing=1PH_1_NYNY wires=[2_ACSR 2_ACSR] faultrate=4.8606136e-05 repair=3.7
New line.227_2736638_7  Phases=2 Bus1=941_6309089.2.3 Bus2=189_3751811.2.3 Length=58.724285 units=m Spacing=2PH_H_2_NYYY wires=[2_ACSR 2_ACSR 2_ACSR] faultrate=4.8606136e-05 repair=3.7
New line.227_2736638_8  Phases=2 Bus1=189_3751811.2.3 Bus2=941_6309047.2.3 Length=76.313205 units=m Spacing=2PH_H_2_NYYY wires=[2_ACSR 2_ACSR 2_ACSR] faultrate=4.8606136e-05 repair=3.7
New line.227_2736638_9  Phases=2 Bus1=941_9000411.2.3 Bus2=941_6309047.2.3 Length=68.257686 units=m Spacing=2PH_H_2_NYYY wires=[2_ACSR 2_ACSR 2_ACSR] faultrate=4.8606136e-05 repair=3.7
New line.227_2736641_3  Phases=1 Bus1=941_6278374.2 Bus2=195_1461290.2 Length=64.948800 units=m Spacing=1PH_1_NYNY wires=[4_ACSR 2_ACSR] faultrate=4.8606136e-05 repair=3.7
New line.227_2736655_1  Phases=1 Bus1=195_1482794.3 Bus2=195_1460828.3 Length=75.002604 units=m Spacing=1PH_1_NNYY wires=[2_ACSR 2_ACSR] faultrate=4.8606136e-05 repair=3.7
New line.227_2736666_1  Phases=1 Bus1=204_676509.2 Bus2=195_1491407.2 Length=25.486400 units=m Spacing=1PH_1_NYNY wires=[2_ACSR 2_ACSR] faultrate=4.8606136e-05 repair=3.7
New line.227_2736683_2  Phases=1 Bus1=941_6278402.2 Bus2=204_668850.2 Length=7.782217 units=m Spacing=1PH_1_NYNY wires=[2_ACSR 2_ACSR] faultrate=4.8606136e-05 repair=3.7
New line.227_2736699_4  Phases=3 Bus1=195_1467316.1.2.3 Bus2=941_6309785.1.2.3 Length=10.078169 units=m Spacing=3PH_H_3_YYYY wires=[1/0_ACSR 1/0_ACSR 1/0_ACSR 1/0_ACSR] faultrate=4.8606136e-05 repair=3.7
New line.227_2736710_1  Phases=1 Bus1=195_1461263.3 Bus2=195_1461264.3 Length=28.654252 units=m Spacing=1PH_1_NNYY wires=[2_ACSR 2_ACSR] faultrate=4.8606136e-05 repair=3.7
New line.227_2736716_6  Phases=1 Bus1=941_6297338.2 Bus2=204_673745.2 Length=5.774853 units=m Spacing=1PH_1_NYNY wires=[2_ACSR 2_ACSR] faultrate=4.8606136e-05 repair=3.7
New line.227_2736733_3  Phases=1 Bus1=195_1472680.3 Bus2=195_1461301.3 Length=42.836262 units=m Spacing=1PH_1_NNYY wires=[4_ACSR 2_ACSR] faultrate=4.8606136e-05 repair=3.7
New line.227_2736754_1  Phases=3 Bus1=195_1470331.1.2.3 Bus2=188_12024.1.2.3 Length=65.141567 units=m Spacing=3PH_H_3_YYYY wires=[2_ACSR 2_ACSR 2_ACSR 2_ACSR] faultrate=4.8606136e-05 repair=3.7
New line.227_2736778_1  Phases=3 Bus1=195_1472682.1.2.3 Bus2=188_12046.1.2.3 Length=50.356466 units=m Spacing=3PH_H_3_YYYY wires=[336_ACSR 336_ACSR 336_ACSR 3/0_ACSR] faultrate=4.8606136e-05 repair=3.7
New line.227_2736781_2  Phases=3 Bus1=941_6309077.1.2.3 Bus2=941_6308991.1.2.3 Length=2.101706 units=m Spacing=3PH_H_3_YYYY wires=[336_ACSR 336_ACSR 336_ACSR 3/0_ACSR] faultrate=4.8606136e-05 repair=3.7
New line.227_2736811_1  Phases=3 Bus1=188_4118.1.2.3 Bus2=204_669706.1.2.3 Length=4.166690 units=m Spacing=3PH_H_3_YYYY wires=[2_ACSR 2_ACSR 2_ACSR 2_ACSR] faultrate=4.8606136e-05 repair=3.7
New line.227_2736813_1  Phases=1 Bus1=195_1496148.2 Bus2=195_1467261.2 Length=96.048085 units=m Spacing=1PH_1_NYNY wires=[4_ACSR 4_ACSR] faultrate=4.8606136e-05 repair=3.7
New line.227_2736851_2  Phases=3 Bus1=226_409561.1.2.3 Bus2=188_12248.1.2.3 Length=51.247957 units=m Spacing=3PH_H_3_YYYY wires=[336_ACSR 336_ACSR 336_ACSR 3/0_ACSR] faultrate=4.8606136e-05 repair=3.7
New line.227_2736852_1  Phases=1 Bus1=195_1475077.2 Bus2=195_1482073.2 Length=198.942057 units=m Spacing=1PH_1_NYNY wires=[2_ACSR 2_ACSR] faultrate=4.8606136e-05 repair=3.7
New line.227_2736852_2  Phases=1 Bus1=941_8995242.2 Bus2=195_1482073.2 Length=107.967347 units=m Spacing=1PH_1_NYNY wires=[2_ACSR 2_ACSR] faultrate=4.8606136e-05 repair=3.7
New line.227_2736857_1  Phases=1 Bus1=188_4157.2 Bus2=195_1484431.2 Length=75.437584 units=m Spacing=1PH_1_NYNY wires=[4_ACSR 4_ACSR] faultrate=4.8606136e-05 repair=3.7
New line.227_2736865_10  Phases=1 Bus1=189_2617893.1 Bus2=195_1493903.1 Length=61.066313 units=m Spacing=1PH_1_YNNY wires=[2_ACSR 2_ACSR] faultrate=4.8606136e-05 repair=3.7
New line.227_2736865_12  Phases=1 Bus1=204_668711.1 Bus2=941_6309094.1 Length=3.101212 units=m Spacing=1PH_1_YNNY wires=[2_ACSR 2_ACSR] faultrate=4.8606136e-05 repair=3.7
New line.227_2736865_13  Phases=1 Bus1=941_6309094.1 Bus2=189_2617893.1 Length=42.798717 units=m Spacing=1PH_1_YNNY wires=[2_ACSR 2_ACSR] faultrate=4.8606136e-05 repair=3.7
New line.227_2736865_2  Phases=1 Bus1=189_2617893.1 Bus2=195_1493903.1 Length=61.066313 units=m Spacing=1PH_1_YNNY wires=[2_ACSR 2_ACSR] faultrate=4.8606136e-05 repair=3.7
New line.227_2736865_3  Phases=1 Bus1=941_6359179.1 Bus2=189_2617893.1 Length=42.798717 units=m Spacing=1PH_1_YNNY wires=[2_ACSR 2_ACSR] faultrate=4.8606136e-05 repair=3.7
New line.227_2736895_3  Phases=1 Bus1=195_1492231.3 Bus2=195_1461235.3 Length=70.793355 units=m Spacing=1PH_1_NNYY wires=[2_ACSR 2_ACSR] faultrate=4.8606136e-05 repair=3.7
New line.227_2736896_4  Phases=1 Bus1=204_672760.2 Bus2=941_6298896.2 Length=47.638937 units=m Spacing=1PH_1_NYNY wires=[2_ACSR 2_ACSR] faultrate=4.8606136e-05 repair=3.7
New line.227_2736896_5  Phases=1 Bus1=941_6298896.2 Bus2=195_1496250.2 Length=53.434938 units=m Spacing=1PH_1_NYNY wires=[2_ACSR 2_ACSR] faultrate=4.8606136e-05 repair=3.7
New line.227_2736912_10  Phases=1 Bus1=189_3752089.2 Bus2=941_6403965.2 Length=37.932355 units=m Spacing=1PH_1_NYNY wires=[4_ACSR 2_ACSR] faultrate=4.8606136e-05 repair=3.7
New line.227_2736912_12  Phases=1 Bus1=204_1251684.2 Bus2=941_6403968.2 Length=5.874096 units=m Spacing=1PH_1_NYNY wires=[4_ACSR 2_ACSR] faultrate=4.8606136e-05 repair=3.7
New line.227_2736912_13  Phases=1 Bus1=941_6403968.2 Bus2=189_3752089.2 Length=12.583984 units=m Spacing=1PH_1_NYNY wires=[4_ACSR 2_ACSR] faultrate=4.8606136e-05 repair=3.7
New line.227_2736912_4  Phases=1 Bus1=941_6403965.2 Bus2=195_1470367.2 Length=31.882995 units=m Spacing=1PH_1_NYNY wires=[4_ACSR 2_ACSR] faultrate=4.8606136e-05 repair=3.7
New line.227_2736936_4  Phases=1 Bus1=204_674423.2 Bus2=195_1484422.2 Length=109.551775 units=m Spacing=1PH_1_NYNY wires=[2_ACSR 2_ACSR] faultrate=4.8606136e-05 repair=3.7
New line.227_2736936_7  Phases=1 Bus1=941_8995012.2 Bus2=195_1484422.2 Length=99.835842 units=m Spacing=1PH_1_NYNY wires=[2_ACSR 2_ACSR] faultrate=4.8606136e-05 repair=3.7
New line.227_2737056_3  Phases=1 Bus1=195_1461276.1 Bus2=195_1461273.1 Length=409.053224 units=m Spacing=1PH_1_YNNY wires=[6_CU 6_CU] faultrate=4.8606136e-05 repair=3.7
New line.227_2737056_7  Phases=1 Bus1=941_8995871.1 Bus2=195_1461273.1 Length=118.799787 units=m Spacing=1PH_1_YNNY wires=[6_CU 6_CU] faultrate=4.8606136e-05 repair=3.7
New line.227_2737071_1  Phases=1 Bus1=188_12226.3 Bus2=204_668505.3 Length=4.979086 units=m Spacing=1PH_1_NNYY wires=[2_ACSR 2_ACSR] faultrate=4.8606136e-05 repair=3.7
New line.227_2737081_3  Phases=1 Bus1=941_6278411.2 Bus2=195_1487615.2 Length=84.461292 units=m Spacing=1PH_1_NYNY wires=[4_ACSR 4_ACSR] faultrate=4.8606136e-05 repair=3.7
New line.227_2737220_3  Phases=3 Bus1=941_6298205.1.2.3 Bus2=195_1467621.1.2.3 Length=14.305403 units=m Spacing=3PH_H_3_YYYY wires=[4_ACSR 4_ACSR 4_ACSR 2_ACSR] faultrate=4.8606136e-05 repair=3.7
New line.227_2737222_1  Phases=1 Bus1=204_670250.2 Bus2=195_1484465.2 Length=61.861581 units=m Spacing=1PH_1_NYNY wires=[4_ACSR 2_ACSR] faultrate=4.8606136e-05 repair=3.7
New line.227_2737257_1  Phases=3 Bus1=188_12232.1.2.3 Bus2=195_1472821.1.2.3 Length=74.807340 units=m Spacing=3PH_H_3_YYYY wires=[2_ACSR 2_ACSR 2_ACSR 1/0_ACSR] faultrate=4.8606136e-05 repair=3.7
New line.227_2737272_1  Phases=1 Bus1=204_672470.1 Bus2=195_1467314.1 Length=47.491122 units=m Spacing=1PH_1_YNNY wires=[4_ACSR 4_ACSR] faultrate=4.8606136e-05 repair=3.7
New line.227_2737272_11  Phases=1 Bus1=941_8993918.1 Bus2=195_1467314.1 Length=47.491122 units=m Spacing=1PH_1_YNNY wires=[4_ACSR 4_ACSR] faultrate=4.8606136e-05 repair=3.7
New line.227_2737272_12  Phases=1 Bus1=204_672470.1 Bus2=941_8993918.1 Length=2.649948 units=m Spacing=1PH_1_YNNY wires=[4_ACSR 4_ACSR] faultrate=4.8606136e-05 repair=3.7
New line.227_2737315_2  Phases=1 Bus1=188_12188.3 Bus2=941_8977813.3 Length=71.116712 units=m Spacing=1PH_1_NNYY wires=[2_ACSR 2_ACSR] faultrate=4.8606136e-05 repair=3.7
New line.227_2737317_2  Phases=1 Bus1=195_1467298.3 Bus2=941_6278367.3 Length=40.149760 units=m Spacing=1PH_1_NNYY wires=[2_ACSR 1/0_ACSR] faultrate=4.8606136e-05 repair=3.7
New line.227_2737329_1  Phases=1 Bus1=195_1489907.2 Bus2=204_676422.2 Length=4.505579 units=m Spacing=1PH_1_NYNY wires=[2_ACSR 2_ACSR] faultrate=4.8606136e-05 repair=3.7
New line.227_2737426_3  Phases=1 Bus1=189_3737151.1 Bus2=195_1467304.1 Length=119.413278 units=m Spacing=1PH_1_YNNY wires=[4_ACSR 4_ACSR] faultrate=4.8606136e-05 repair=3.7
New line.227_2737477_3  Phases=1 Bus1=941_6309032.2 Bus2=195_1471091.2 Length=67.650160 units=m Spacing=1PH_1_NYNY wires=[2_ACSR 2_ACSR] faultrate=4.8606136e-05 repair=3.7
New line.227_2737500_7  Phases=3 Bus1=188_11790.1.2.3 Bus2=200_1045185_2S.1.2.3 Length=60.415160 units=m Spacing=3PH_H_3_YYYY wires=[336_ACSR 336_ACSR 336_ACSR 3/0_ACSR] faultrate=4.8606136e-05 repair=3.7
New line.227_2737503_2  Phases=1 Bus1=195_1467311.2 Bus2=941_8981117.2 Length=49.518705 units=m Spacing=1PH_1_NYNY wires=[2_ACSR 2_ACSR] faultrate=4.8606136e-05 repair=3.7
New line.227_2737524_3  Phases=1 Bus1=204_671520.1 Bus2=189_3735558.1 Length=45.320497 units=m Spacing=1PH_1_YNNY wires=[2_ACSR 2_ACSR] faultrate=4.8606136e-05 repair=3.7
New line.227_2737524_4  Phases=1 Bus1=189_3735558.1 Bus2=941_6278400.1 Length=4.938551 units=m Spacing=1PH_1_YNNY wires=[2_ACSR 2_ACSR] faultrate=4.8606136e-05 repair=3.7
New line.227_2737568_3  Phases=1 Bus1=204_668826.3 Bus2=941_6298830.3 Length=20.620119 units=m Spacing=1PH_1_NNYY wires=[2_ACSR 2_ACSR] faultrate=4.8606136e-05 repair=3.7
New line.227_2737574_3  Phases=2 Bus1=941_6278363.2.3 Bus2=195_1487619.2.3 Length=42.620086 units=m Spacing=2PH_H_2_NYYY wires=[4_ACSR 4_ACSR 2_ACSR] faultrate=4.8606136e-05 repair=3.7
New line.227_2737584_2  Phases=1 Bus1=204_669691.2 Bus2=189_3752126.2 Length=21.579300 units=m Spacing=1PH_1_NYNY wires=[6_CU 2_ACSR] faultrate=4.8606136e-05 repair=3.7
New line.227_2737584_3  Phases=1 Bus1=189_3752126.2 Bus2=195_1496200.2 Length=20.684716 units=m Spacing=1PH_1_NYNY wires=[6_CU 2_ACSR] faultrate=4.8606136e-05 repair=3.7
New line.227_2737585_5  Phases=1 Bus1=204_673740.1 Bus2=189_2641712.1 Length=23.311894 units=m Spacing=1PH_1_YNNY wires=[2_ACSR 2_ACSR] faultrate=4.8606136e-05 repair=3.7
New line.227_2737585_6  Phases=1 Bus1=189_2641712.1 Bus2=195_1467820.1 Length=77.460084 units=m Spacing=1PH_1_YNNY wires=[2_ACSR 2_ACSR] faultrate=4.8606136e-05 repair=3.7
New line.227_2737663_1  Phases=3 Bus1=204_673303.1.2.3 Bus2=189_2617545.1.2.3 Length=33.199620 units=m Spacing=3PH_H_3_YYYY wires=[2_ACSR 2_ACSR 2_ACSR 2_ACSR] faultrate=4.8606136e-05 repair=3.7
New line.227_2737663_2  Phases=3 Bus1=189_2617545.1.2.3 Bus2=195_1486779.1.2.3 Length=36.475317 units=m Spacing=3PH_H_3_YYYY wires=[2_ACSR 2_ACSR 2_ACSR 2_ACSR] faultrate=4.8606136e-05 repair=3.7
New line.227_2737664_2  Phases=1 Bus1=941_6309102.2 Bus2=941_6309032.2 Length=114.707991 units=m Spacing=1PH_1_NYNY wires=[2_ACSR 2_ACSR] faultrate=4.8606136e-05 repair=3.7
New line.227_2737693_3  Phases=1 Bus1=941_8981416.3 Bus2=195_1494606.3 Length=89.332951 units=m Spacing=1PH_1_NNYY wires=[2_ACSR 2_ACSR] faultrate=4.8606136e-05 repair=3.7
New line.227_2737723_1  Phases=1 Bus1=188_12046.2 Bus2=204_675856.2 Length=3.412817 units=m Spacing=1PH_1_NYNY wires=[2_ACSR 2_ACSR] faultrate=4.8606136e-05 repair=3.7
New line.227_2737798_5  Phases=3 Bus1=226_187184.1.2.3 Bus2=941_6430542.1.2.3 Length=3.045817 units=m Spacing=3PH_H_3_YYYY wires=[336_ACSR 336_ACSR 336_ACSR 4/0_ACSR] faultrate=4.8606136e-05 repair=3.7
New line.227_2737817_1  Phases=1 Bus1=195_1482026.2 Bus2=204_669854.2 Length=6.396445 units=m Spacing=1PH_1_NYNY wires=[2_ACSR 2_ACSR] faultrate=4.8606136e-05 repair=3.7
New line.227_2737824_5  Phases=2 Bus1=941_6337331.2.3 Bus2=195_1467000.2.3 Length=77.807737 units=m Spacing=2PH_H_2_NYYY wires=[2_ACSR 2_ACSR 2_ACSR] faultrate=4.8606136e-05 repair=3.7
New line.227_2737824_6  Phases=2 Bus1=189_3751812.2.3 Bus2=941_6337331.2.3 Length=63.142883 units=m Spacing=2PH_H_2_NYYY wires=[2_ACSR 2_ACSR 2_ACSR] faultrate=4.8606136e-05 repair=3.7
New line.227_2737824_7  Phases=2 Bus1=941_6309038.2.3 Bus2=189_3751812.2.3 Length=7.482006 units=m Spacing=2PH_H_2_NYYY wires=[2_ACSR 2_ACSR 2_ACSR] faultrate=4.8606136e-05 repair=3.7
New line.227_2737872_1  Phases=1 Bus1=195_1482028.2 Bus2=195_1475022.2 Length=89.628958 units=m Spacing=1PH_1_NYNY wires=[2_ACSR 2_ACSR] faultrate=4.8606136e-05 repair=3.7
New line.227_2737880_1  Phases=1 Bus1=188_12247.3 Bus2=204_676436.3 Length=4.377199 units=m Spacing=1PH_1_NNYY wires=[2_ACSR 2_ACSR] faultrate=4.8606136e-05 repair=3.7
New line.227_2737927_1  Phases=1 Bus1=195_1470339.2 Bus2=195_1472696.2 Length=76.313618 units=m Spacing=1PH_1_NYNY wires=[2_ACSR 2_ACSR] faultrate=4.8606136e-05 repair=3.7
New line.227_2737959_1  Phases=1 Bus1=195_1479832.1 Bus2=195_1461180.1 Length=107.096947 units=m Spacing=1PH_1_YNNY wires=[2_ACSR 2_ACSR] faultrate=4.8606136e-05 repair=3.7
New line.227_2737966_2  Phases=1 Bus1=195_1479710.2 Bus2=189_3738203.2 Length=98.654310 units=m Spacing=1PH_1_NYNY wires=[4_ACSR 4_ACSR] faultrate=4.8606136e-05 repair=3.7
New line.227_2737966_3  Phases=1 Bus1=189_3738203.2 Bus2=195_1493746.2 Length=77.136629 units=m Spacing=1PH_1_NYNY wires=[4_ACSR 4_ACSR] faultrate=4.8606136e-05 repair=3.7
New line.227_2737966_5  Phases=1 Bus1=941_8997571.2 Bus2=189_3738203.2 Length=4.327168 units=m Spacing=1PH_1_NYNY wires=[4_ACSR 4_ACSR] faultrate=4.8606136e-05 repair=3.7
New line.227_2738006_1  Phases=1 Bus1=195_1484415.1 Bus2=195_1477459.1 Length=41.892005 units=m Spacing=1PH_1_YNNY wires=[2_ACSR 2_ACSR] faultrate=4.8606136e-05 repair=3.7
New line.227_2738029_4  Phases=1 Bus1=195_1491317.2 Bus2=189_3739517.2 Length=10.017070 units=m Spacing=1PH_1_NYNY wires=[2_ACSR 2_ACSR] faultrate=4.8606136e-05 repair=3.7
New line.227_2738029_5  Phases=1 Bus1=189_3739517.2 Bus2=195_1482026.2 Length=69.709864 units=m Spacing=1PH_1_NYNY wires=[2_ACSR 2_ACSR] faultrate=4.8606136e-05 repair=3.7
New line.227_2738065_2  Phases=1 Bus1=941_6308979.1 Bus2=204_670962.1 Length=3.758667 units=m Spacing=1PH_1_YNNY wires=[2_ACSR 2_ACSR] faultrate=4.8606136e-05 repair=3.7
New line.227_2738081_2  Phases=1 Bus1=189_2617890.2 Bus2=195_1467819.2 Length=38.378744 units=m Spacing=1PH_1_NYNY wires=[2_ACSR 2_ACSR] faultrate=4.8606136e-05 repair=3.7
New line.227_2738081_3  Phases=1 Bus1=941_6309001.2 Bus2=189_2617890.2 Length=42.413252 units=m Spacing=1PH_1_NYNY wires=[2_ACSR 2_ACSR] faultrate=4.8606136e-05 repair=3.7
New line.227_2738085_2  Phases=1 Bus1=204_671090.2 Bus2=189_3738066.2 Length=43.137813 units=m Spacing=1PH_1_NYNY wires=[2_ACSR 2_ACSR] faultrate=4.8606136e-05 repair=3.7
New line.227_2738085_3  Phases=1 Bus1=189_3738066.2 Bus2=195_1467859.2 Length=5.437493 units=m Spacing=1PH_1_NYNY wires=[2_ACSR 2_ACSR] faultrate=4.8606136e-05 repair=3.7
New line.227_2738112_1  Phases=1 Bus1=195_1477416.1 Bus2=195_1491364.1 Length=50.619167 units=m Spacing=1PH_1_YNNY wires=[2_ACSR 2_ACSR] faultrate=4.8606136e-05 repair=3.7
New line.227_2738196_2  Phases=1 Bus1=941_6308954.1 Bus2=204_676626.1 Length=6.400269 units=m Spacing=1PH_1_YNNY wires=[2_ACSR 2_ACSR] faultrate=4.8606136e-05 repair=3.7
New line.227_2738203_1  Phases=1 Bus1=195_1468475.3 Bus2=189_3753153.3 Length=14.852151 units=m Spacing=1PH_1_NNYY wires=[4_ACSR 4_ACSR] faultrate=4.8606136e-05 repair=3.7
New line.227_2738203_2  Phases=1 Bus1=189_3753153.3 Bus2=195_1473224.3 Length=10.084827 units=m Spacing=1PH_1_NNYY wires=[4_ACSR 4_ACSR] faultrate=4.8606136e-05 repair=3.7
New line.227_2738207_3  Phases=1 Bus1=941_6308968.1 Bus2=189_3751781.1 Length=21.386415 units=m Spacing=1PH_1_YNNY wires=[2_ACSR 2_ACSR] faultrate=4.8606136e-05 repair=3.7
New line.227_2738207_4  Phases=1 Bus1=189_3751781.1 Bus2=941_6308985.1 Length=41.378624 units=m Spacing=1PH_1_YNNY wires=[2_ACSR 2_ACSR] faultrate=4.8606136e-05 repair=3.7
New line.227_2738269_2  Phases=3 Bus1=188_12026.1.2.3 Bus2=941_4670765.1.2.3 Length=57.633837 units=m Spacing=3PH_H_3_YYYY wires=[2_ACSR 2_ACSR 2_ACSR 2_ACSR] faultrate=4.8606136e-05 repair=3.7
New line.227_2738331_4  Phases=3 Bus1=941_3233634.1.2.3 Bus2=226_409508.1.2.3 Length=113.538071 units=m Spacing=3PH_H_3_YYYY wires=[1/0_ACSR 1/0_ACSR 1/0_ACSR 1/0_ACSR] faultrate=4.8606136e-05 repair=3.7
New line.227_2738331_6  Phases=3 Bus1=226_409508.1.2.3 Bus2=189_3742556.1.2.3 Length=46.821334 units=m Spacing=3PH_H_3_YYYY wires=[1/0_ACSR 1/0_ACSR 1/0_ACSR 1/0_ACSR] faultrate=4.8606136e-05 repair=3.7
New line.227_2738331_7  Phases=3 Bus1=189_3742556.1.2.3 Bus2=195_1473525.1.2.3 Length=75.532427 units=m Spacing=3PH_H_3_YYYY wires=[1/0_ACSR 1/0_ACSR 1/0_ACSR 1/0_ACSR] faultrate=4.8606136e-05 repair=3.7
New line.227_2738382_1  Phases=1 Bus1=204_671105.1 Bus2=195_1482176.1 Length=116.933995 units=m Spacing=1PH_1_YNNY wires=[2_ACSR 2_ACSR] faultrate=4.8606136e-05 repair=3.7
New line.227_2738385_1  Phases=1 Bus1=195_1484365.1 Bus2=195_1491318.1 Length=66.436450 units=m Spacing=1PH_1_YNNY wires=[4_ACSR 4_ACSR] faultrate=4.8606136e-05 repair=3.7
New line.227_2738386_2  Phases=3 Bus1=195_1485289.1.2.3 Bus2=941_6278364.1.2.3 Length=69.191138 units=m Spacing=3PH_H_3_YYYY wires=[336_ACSR 336_ACSR 336_ACSR 3/0_ACSR] faultrate=4.8606136e-05 repair=3.7
New line.227_2738408_2  Phases=1 Bus1=941_6295237.1 Bus2=204_676516.1 Length=7.369716 units=m Spacing=1PH_1_YNNY wires=[2_ACSR 2_ACSR] faultrate=4.8606136e-05 repair=3.7
New line.227_2738448_1  Phases=3 Bus1=204_670033.1.2.3 Bus2=195_1479734.1.2.3 Length=57.255041 units=m Spacing=3PH_H_3_YYYY wires=[2_ACSR 2_ACSR 2_ACSR 2_ACSR] faultrate=4.8606136e-05 repair=3.7
New line.227_2738458_4  Phases=1 Bus1=195_1475121.1 Bus2=941_6303825.1 Length=185.274573 units=m Spacing=1PH_1_YNNY wires=[4_ACSR 4_ACSR] faultrate=4.8606136e-05 repair=3.7
New line.227_2738458_6  Phases=1 Bus1=941_6303825.1 Bus2=189_3737924.1 Length=2.531511 units=m Spacing=1PH_1_YNNY wires=[4_ACSR 4_ACSR] faultrate=4.8606136e-05 repair=3.7
New line.227_2738458_7  Phases=1 Bus1=189_3737924.1 Bus2=195_1491417.1 Length=6.833816 units=m Spacing=1PH_1_YNNY wires=[4_ACSR 4_ACSR] faultrate=4.8606136e-05 repair=3.7
New line.227_2738458_9  Phases=1 Bus1=941_8997724.1 Bus2=941_8997725.1 Length=83.759511 units=m Spacing=1PH_1_YNNY wires=[4_ACSR 4_ACSR] faultrate=4.8606136e-05 repair=3.7
New line.227_2738475_1  Phases=1 Bus1=195_1475056.1 Bus2=195_1475054.1 Length=95.295654 units=m Spacing=1PH_1_YNNY wires=[4_ACSR 4_ACSR] faultrate=4.8606136e-05 repair=3.7
New line.227_2738507_5  Phases=1 Bus1=941_6681605.3 Bus2=204_879707.3 Length=10.307588 units=m Spacing=1PH_1_NNYY wires=[2_ACSR 2_ACSR] faultrate=4.8606136e-05 repair=3.7
New line.227_2738585_3  Phases=1 Bus1=941_6315064.3 Bus2=204_668703.3 Length=8.034533 units=m Spacing=1PH_1_NNYY wires=[2_ACSR 2_ACSR] faultrate=4.8606136e-05 repair=3.7
New line.227_2738632_7  Phases=1 Bus1=195_1467818.1 Bus2=195_1493902.1 Length=67.348331 units=m Spacing=1PH_1_YNNY wires=[2_ACSR 2_ACSR] faultrate=4.8606136e-05 repair=3.7
New line.227_2738633_1  Phases=1 Bus1=941_6309027.1 Bus2=941_6309069.1 Length=35.722266 units=m Spacing=1PH_1_YNNY wires=[4_ACSR 4_ACSR] faultrate=4.8606136e-05 repair=3.7
New line.227_2738633_5  Phases=1 Bus1=195_2312241.1 Bus2=941_8999064.1 Length=37.382128 units=m Spacing=1PH_1_YNNY wires=[4_ACSR 4_ACSR] faultrate=4.8606136e-05 repair=3.7
New line.227_2738633_6  Phases=1 Bus1=941_8999064.1 Bus2=941_6309069.1 Length=35.722266 units=m Spacing=1PH_1_YNNY wires=[4_ACSR 4_ACSR] faultrate=4.8606136e-05 repair=3.7
New line.227_2738692_1  Phases=1 Bus1=204_671990.3 Bus2=195_1482794.3 Length=71.099102 units=m Spacing=1PH_1_NNYY wires=[2_ACSR 2_ACSR] faultrate=4.8606136e-05 repair=3.7
New line.227_2738702_3  Phases=3 Bus1=226_409517.1.2.3 Bus2=941_6308988.1.2.3 Length=4.712372 units=m Spacing=3PH_H_3_YYYY wires=[336_ACSR 336_ACSR 336_ACSR 3/0_ACSR] faultrate=4.8606136e-05 repair=3.7
New line.227_2738702_4  Phases=3 Bus1=189_3741818.1.2.3 Bus2=226_409517.1.2.3 Length=58.007825 units=m Spacing=3PH_H_3_YYYY wires=[336_ACSR 336_ACSR 336_ACSR 3/0_ACSR] faultrate=4.8606136e-05 repair=3.7
New line.227_2738712_3  Phases=1 Bus1=195_1461256.3 Bus2=204_880977.3 Length=6.156081 units=m Spacing=1PH_1_NNYY wires=[2_ACSR 2_ACSR] faultrate=4.8606136e-05 repair=3.7
New line.227_2738719_7  Phases=3 Bus1=189_3752056.1.2.3 Bus2=941_6309929.1.2.3 Length=161.479241 units=m Spacing=3PH_H_3_YYYY wires=[2_ACSR 2_ACSR 2_ACSR 2_ACSR] faultrate=4.8606136e-05 repair=3.7
New line.227_2738719_8  Phases=3 Bus1=189_3752056.1.2.3 Bus2=941_8995539.1.2.3 Length=80.808893 units=m Spacing=3PH_H_3_YYYY wires=[2_ACSR 2_ACSR 2_ACSR 2_ACSR] faultrate=4.8606136e-05 repair=3.7
New line.227_2738739_3  Phases=1 Bus1=195_1467291.2 Bus2=941_6417780.2 Length=44.175113 units=m Spacing=1PH_1_NYNY wires=[2_ACSR 2_ACSR] faultrate=4.8606136e-05 repair=3.7
New line.227_2738739_4  Phases=1 Bus1=941_6417780.2 Bus2=195_1477415.2 Length=54.353528 units=m Spacing=1PH_1_NYNY wires=[2_ACSR 2_ACSR] faultrate=4.8606136e-05 repair=3.7
New line.227_2738784_1  Phases=1 Bus1=188_12550.1 Bus2=204_670990.1 Length=5.091444 units=m Spacing=1PH_1_YNNY wires=[4_ACSR 4_ACSR] faultrate=4.8606136e-05 repair=3.7
New line.227_2738798_1  Phases=3 Bus1=195_1479735.1.2.3 Bus2=188_12104.1.2.3 Length=72.269275 units=m Spacing=3PH_H_3_YYYY wires=[1/0_ACSR 1/0_ACSR 1/0_ACSR 1/0_ACSR] faultrate=4.8606136e-05 repair=3.7
New line.227_2738801_1  Phases=3 Bus1=941_6278415.1.2.3 Bus2=941_6278371.1.2.3 Length=36.747402 units=m Spacing=3PH_H_3_YYYY wires=[336_ACSR 336_ACSR 336_ACSR 3/0_ACSR] faultrate=4.8606136e-05 repair=3.7